MAT-23

loop_
_symmetry_equiv_pos_as_xyz
  x,y,z
_cell_length_a          47.239
_cell_length_b          46.5189
_cell_length_c          31.806
_cell_angle_alpha       90.0000
_cell_angle_beta        90.0000
_cell_angle_gamma       90.0000
loop_
_atom_site_label
_atom_site_type_symbol
_atom_site_fract_x
_atom_site_fract_y
_atom_site_fract_z
A_2     C     0.869     0.5937     0.2522
A_0     C     0.278     0.2435     0.8547
A_2     C     0.9987     0.8195     0.4545
A_2     C     0.7631     0.7351     0.3231
A_1     C     0.7703     0.6758     0.3074
A_2     C     0.8044     0.0607     0.9388
A_3     C     0.7525     0.9017     0.337
A_0     C     0.9143     0.8071     0.3886
A_0     C     0.8897     0.7429     0.6644
A_2     C     0.2616     0.1754     0.4618
A_2     C     0.2874     0.2693     0.8129
A_3     C     0.4185     0.6988     0.4923
A_1     C     0.646     0.6927     0.7604
A_3     C     0.838     0.2704     0.8019
A_1     C     0.2905     0.4512     0.8115
A_2     C     0.1632     0.3558     0.0075
A_1     C     0.9083     0.0833     0.4492
A_3     C     0.2381     0.7442     0.2497
A_2     C     0.7884     0.6335     0.4845
A_0     C     0.5179     0.4275     0.9841
A_1     C     0.8883     0.0432     0.5462
A_1     C     0.7401     0.4548     0.9562
A_2     C     0.8435     0.0698     0.019
A_2     C     0.5916     0.4468     0.7738
A_0     C     0.1347     0.2309     0.3306
A_2     C     0.3797     0.2718     0.3296
A_2     C     0.6461     0.2374     0.3752
A_3     C     0.2311     0.1167     0.961
A_2     C     0.1169     0.0587     0.9802
A_2     C     0.3462     0.3045     0.3642
A_0     C     0.9658     0.6793     0.6909
A_3     C     0.36     0.3313     0.6141
A_2     C     0.424     0.89     0.1592
A_0     C     0.8897     0.8742     0.6218
A_0     C     0.6263     0.2153     0.6908
A_2     C     0.3755     0.6976     0.0029
A_0     C     0.1628     0.5176     0.6562
A_1     C     0.8688     0.3363     0.4473
A_3     C     0.6749     0.799     0.2402
A_2     C     0.4461     0.3732     0.4482
A_1     C     0.1006     0.399     0.0205
A_2     C     0.3752     0.8858     0.2555
A_2     C     0.6672     0.053     0.6138
A_1     C     0.3022     0.5372     0.7537
A_1     C     0.3728     0.9381     0.0136
A_3     C     0.0142     0.5875     0.7928
A_0     C     0.0843     0.7568     0.008
A_2     C     0.3269     0.8968     0.4916
A_2     C     0.958     0.0516     0.0633
A_1     C     0.1161     0.7911     0.2584
A_0     C     0.62     0.586     0.3308
A_2     C     0.6266     0.9678     0.9459
A_3     C     0.2053     0.1096     0.57
A_0     C     0.3231     0.141     0.3152
A_1     C     0.701     0.4566     0.102
A_1     C     0.0743     0.3027     0.7021
A_1     C     0.2616     0.8446     0.0323
A_2     C     0.3896     0.8985     0.3211
A_1     C     0.5893     0.435     0.4557
A_0     C     0.0202     0.892     0.6551
A_3     C     0.8766     0.1226     0.9914
A_3     C     0.0989     0.9677     0.5834
A_3     C     0.5345     0.9441     0.8644
A_3     C     0.0965     0.6963     0.9924
A_3     C     0.6918     0.1667     0.1255
A_0     C     0.7584     0.5539     0.3208
A_2     C     0.0293     0.6278     0.8819
A_0     C     0.9464     0.7641     0.9016
A_0     C     0.3605     0.1677     0.0873
A_0     C     0.6365     0.1676     0.7529
A_0     C     0.8037     0.7479     0.3037
A_0     C     0.1551     0.8491     0.687
A_1     C     0.3579     0.7369     0.4763
A_1     C     0.2526     0.3383     0.9293
A_3     C     0.3563     0.4807     0.108
A_0     C     0.731     0.5716     0.5426
A_1     C     0.1661     0.0128     0.977
A_1     C     0.1009     0.7796     0.7826
A_3     C     0.1531     0.4217     0.549
A_0     C     0.4796     0.6516     0.0787
A_1     C     0.2467     0.6143     0.015
A_1     C     0.7885     0.4889     0.956
A_0     C     0.2313     0.6179     0.9667
A_0     C     0.613     0.038     0.8662
A_0     C     0.3254     0.2383     0.4341
A_0     C     0.0894     0.784     0.075
A_0     C     0.737     0.6417     0.3151
A_3     C     0.9793     0.9722     0.5348
A_3     C     0.7951     0.0476     0.0715
A_0     C     0.2894     0.4706     0.8024
A_2     C     0.1631     0.0467     0.7687
A_2     C     0.3232     0.0761     0.4972
A_0     C     0.0103     0.6244     0.5795
A_1     C     0.9862     0.8884     0.678
A_2     C     0.5359     0.675     0.1248
A_3     C     0.5232     0.333     0.3389
A_0     C     0.6367     0.4986     0.3748
A_0     C     0.3769     0.4254     0.9062
A_0     C     0.4677     0.8098     0.4641
A_2     C     0.4447     0.8041     0.6859
A_3     C     0.0617     0.4259     0.976
A_0     C     0.5189     0.7526     0.791
A_1     C     0.5031     0.2883     0.5864
A_0     C     0.9502     0.1777     0.9126
A_0     C     0.8784     0.7652     0.1875
A_0     C     0.0918     0.4895     0.8607
A_1     C     0.0669     0.7628     0.483
A_3     C     0.4408     0.3534     0.2068
A_1     C     0.3757     0.2195     0.7388
A_1     C     0.7502     0.783     0.6445
A_3     C     0.7094     0.4573     0.98
A_1     C     0.2431     0.6341     0.3995
A_1     C     0.3468     0.4496     0.6292
A_2     C     0.8752     0.6641     0.9008
A_0     C     0.8607     0.191     0.0461
A_3     C     0.1704     0.2767     0.7942
A_1     C     0.9748     0.7121     0.9363
A_3     C     0.1314     0.5765     0.2813
A_0     C     0.4402     0.7975     0.55
A_1     C     0.6232     0.1568     0.463
A_3     C     0.0644     0.6557     0.1695
A_1     C     0.2221     0.6967     0.8233
A_2     C     0.077     0.2052     0.9001
A_0     C     0.1469     0.8626     0.2129
A_2     C     0.1831     0.4252     0.6385
A_0     C     0.9217     0.7961     0.0855
A_2     C     0.3915     0.478     0.9028
A_3     C     0.7207     0.258     0.4476
A_0     C     0.7465     0.3938     0.1325
A_0     C     0.2617     0.0712     0.9858
A_3     C     0.6779     0.8812     0.0735
A_0     C     0.7244     0.1176     0.6113
A_3     C     0.6129     0.788     0.8495
A_0     C     0.3131     0.5541     0.1609
A_0     C     0.105     0.6341     0.1962
A_3     C     0.1524     0.3719     0.8788
A_3     C     0.8994     0.8574     0.4352
A_0     C     0.8414     0.4575     0.478
A_3     C     0.9238     0.2929     0.7982
A_0     C     0.1958     0.9546     0.2106
A_3     C     0.8049     0.0138     0.262
A_0     C     0.6643     0.3278     0.1906
A_0     C     0.6783     0.2712     0.6987
A_2     C     0.998     0.2826     0.3306
A_2     C     0.5574     0.4596     0.5891
A_1     C     0.4704     0.3688     0.2673
A_1     C     0.0876     0.3959     0.9403
A_0     C     0.1545     0.5672     0.8692
A_0     C     0.9741     0.8338     0.3228
A_3     C     0.8536     0.0545     0.3958
A_0     C     0.9619     0.8401     0.2017
A_1     C     0.4922     0.8817     0.3284
A_0     C     0.3467     0.8747     0.8104
A_3     C     0.1893     0.7991     0.2931
A_0     C     0.8448     0.9472     0.2006
A_1     C     0.3342     0.5958     0.2508
A_3     C     0.1098     0.9119     0.7829
A_2     C     0.7744     0.1268     0.7568
A_0     C     0.6493     0.6018     0.0467
A_0     C     0.641     0.3342     0.3822
A_1     C     0.7402     0.7678     0.1347
A_3     C     0.4803     0.2236     0.0036
A_3     C     0.04     0.4233     0.8629
A_2     C     0.3768     0.6078     0.7746
A_3     C     0.2478     0.6125     0.6526
A_1     C     0.1564     0.567     0.381
A_3     C     0.8329     0.9922     0.82
A_0     C     0.5398     0.0721     0.0926
A_3     C     0.1605     0.2703     0.3499
A_1     C     0.4024     0.3057     0.8958
A_1     C     0.3061     0.9017     0.1311
A_2     C     0.8019     0.4438     0.3411
A_0     C     0.0702     0.6779     0.6527
A_3     C     0.7936     0.9947     0.4721
A_3     C     0.1672     0.462     0.6954
A_3     C     0.5911     0.1895     0.1931
A_1     C     0.9726     0.0722     0.1282
A_0     C     0.858     0.8056     0.9862
A_3     C     0.4139     0.88     0.4324
A_1     C     0.5641     0.9066     0.449
A_0     C     0.5877     0.2965     0.4479
A_2     C     0.6286     0.2928     0.8473
A_3     C     0.3434     0.2592     0.9121
A_0     C     0.04     0.8211     0.0035
A_3     C     0.2944     0.3289     0.7793
A_1     C     0.2364     0.7987     0.0333
A_0     C     0.7381     0.8085     0.1902
A_1     C     0.6     0.0219     0.6275
A_0     C     0.944     0.2017     0.1105
A_2     C     0.1915     0.7761     0.6079
A_0     C     0.3682     0.9013     0.0676
A_0     C     0.9265     0.4533     0.8477
A_3     C     0.0883     0.3908     0.1127
A_3     C     0.5427     0.9666     0.335
A_2     C     0.6146     0.3321     0.0454
A_1     C     0.9419     0.1121     0.8982
A_2     C     0.8897     0.113     0.2558
A_3     C     0.6714     0.1082     0.8225
A_1     C     0.7959     0.1209     0.5127
A_3     C     0.8534     0.7999     0.3328
A_2     C     0.4594     0.7742     0.6504
A_0     C     0.7928     0.806     0.1558
A_2     C     0.9351     0.2903     0.0773
A_1     C     0.8101     0.4699     0.579
A_0     C     0.0938     0.0724     0.704
A_3     C     0.7158     0.0766     0.0474
A_1     C     0.266     0.3252     0.5325
A_2     C     0.8175     0.6411     0.3943
A_1     C     0.5394     0.5599     0.2475
A_2     C     0.8904     0.1265     0.1329
A_0     C     0.9751     0.84     0.7284
A_0     C     0.2171     0.9996     0.9737
A_0     C     0.6232     0.0445     0.5675
A_1     C     0.4472     0.017     0.788
A_3     C     0.1604     0.0725     0.2502
A_2     C     0.8849     0.2427     0.381
A_0     C     0.2478     0.4009     0.5053
A_1     C     0.2773     0.4913     0.6287
A_0     C     0.8967     0.649     0.5765
A_3     C     0.3352     0.5401     0.5227
A_1     C     0.5602     0.8423     0.8473
A_0     C     0.0662     0.646     0.0226
A_3     C     0.8519     0.2616     0.2645
A_3     C     0.5761     0.1372     0.714
A_1     C     0.8528     0.7631     0.5545
A_3     C     0.9821     0.1925     0.4738
A_0     C     0.7907     0.8924     0.281
A_2     C     0.7207     0.3389     0.8223
A_3     C     0.5023     0.1826     0.6162
A_3     C     0.5743     0.7244     0.5047
A_2     C     0.7128     0.2873     0.2668
A_3     C     0.944     0.7796     0.5926
A_1     C     0.9113     0.4821     0.8234
A_1     C     0.9424     0.3746     0.1201
A_0     C     0.0938     0.6207     0.4882
A_3     C     0.8802     0.6571     0.4678
A_2     C     0.4807     0.9655     0.1452
A_2     C     0.8189     0.6382     0.7064
A_0     C     0.8919     0.9091     0.0751
A_3     C     0.895     0.8135     0.4262
A_2     C     0.8489     0.7062     0.6946
A_1     C     0.9227     0.1082     0.7784
A_0     C     0.563     0.9293     0.2753
A_1     C     0.1595     0.0174     0.7714
A_0     C     0.0431     0.4786     0.164
A_1     C     0.3572     0.1243     0.1032
A_3     C     0.9018     0.5818     0.7466
A_0     C     0.697     0.3456     0.33
A_1     C     0.8699     0.0872     0.0609
A_1     C     0.0093     0.6864     0.4124
A_3     C     0.809     0.7009     0.9267
A_1     C     0.4679     0.1451     0.4606
A_3     C     0.8756     0.9274     0.7807
A_2     C     0.5162     0.3971     0.635
A_2     C     0.4149     0.4818     0.8719
A_1     C     0.9776     0.1784     0.3503
A_2     C     0.7999     0.629     0.3166
A_1     C     0.3524     0.6837     0.8369
A_0     C     0.6783     0.9231     0.0265
A_2     C     0.0754     0.0993     0.136
A_3     C     0.8717     0.3367     0.1743
A_2     C     0.4123     0.0563     0.5494
A_3     C     0.0849     0.0067     0.0503
A_3     C     0.7626     0.2695     0.6635
A_2     C     0.3975     0.4844     0.3213
A_3     C     0.5037     0.297     0.7491
A_2     C     0.1369     0.1507     0.4229
A_3     C     0.5224     0.9586     0.1112
A_1     C     0.9966     0.2346     0.8784
A_1     C     0.0438     0.4995     0.5453
A_0     C     0.561     0.7988     0.4251
A_3     C     0.6883     0.2805     0.7472
A_3     C     0.8093     0.0434     0.2838
A_0     C     0.0118     0.41     0.1136
A_0     C     0.0643     0.2453     0.2113
A_0     C     0.5854     0.7728     0.143
A_1     C     0.1829     0.6204     0.7897
A_0     C     0.9524     0.3679     0.0696
A_2     C     0.1235     0.064     0.0957
A_0     C     0.0892     0.7698     0.6951
A_3     C     0.295     0.992     0.2274
A_3     C     0.9869     0.3115     0.584
A_3     C     0.8764     0.9503     0.5603
A_1     C     0.6353     0.0824     0.6902
A_3     C     0.4778     0.2522     0.0238
A_1     C     0.9508     0.4803     0.09
A_1     C     0.9337     0.6189     0.9319
A_1     C     0.6249     0.949     0.181
A_1     C     0.7728     0.7483     0.2654
A_0     C     0.9799     0.5371     0.8076
A_2     C     0.7352     0.8984     0.601
A_0     C     0.4448     0.9779     0.6241
A_0     C     0.8787     0.3583     0.0917
A_2     C     0.488     0.3727     0.9197
A_3     C     0.9312     0.4569     0.2865
A_2     C     0.7357     0.8278     0.1135
A_2     C     0.5511     0.4932     0.0077
A_3     C     0.8924     0.1881     0.3231
A_0     C     0.2814     0.201     0.7572
A_3     C     0.1406     0.579     0.8179
A_1     C     0.3032     0.9086     0.7154
A_0     C     0.4667     0.3254     0.9973
A_0     C     0.4227     0.9963     0.6664
A_3     C     0.0845     0.4689     0.9646
A_3     C     0.1242     0.3277     0.9151
A_2     C     0.2897     0.8901     0.9993
A_0     C     0.9647     0.5436     0.6006
A_0     C     0.1469     0.0881     0.3397
A_0     C     0.3066     0.5542     0.4856
A_2     C     0.5209     0.9571     0.9132
A_2     C     0.2956     0.0675     0.5788
A_3     C     0.6357     0.7732     0.1192
A_3     C     0.5774     0.4428     0.2102
A_2     C     0.1513     0.514     0.8667
A_0     C     0.3375     0.631     0.9427
A_2     C     0.6544     0.9433     0.7305
A_0     C     0.1705     0.2108     0.4365
A_3     C     0.0777     0.2808     0.5663
A_3     C     0.6287     0.2417     0.0047
A_1     C     0.3506     0.8931     0.8919
A_2     C     0.6261     0.3711     0.441
A_2     C     0.419     0.2295     0.4361
A_1     C     0.1047     0.8455     0.7903
A_0     C     0.493     0.447     0.4583
A_2     C     0.3308     0.2384     0.5721
A_3     C     0.0537     0.0656     0.7078
A_3     C     0.2343     0.748     0.8258
A_2     C     0.3663     0.798     0.663
A_1     C     0.463     0.0365     0.6042
A_3     C     0.0195     0.0503     0.6731
A_1     C     0.2312     0.8164     0.8835
A_2     C     0.7824     0.5529     0.4719
A_1     C     0.0897     0.6143     0.3023
A_0     C     0.6622     0.8858     0.4995
A_0     C     0.1789     0.2242     0.2113
A_3     C     0.7612     0.8333     0.8149
A_3     C     0.6741     0.7663     0.5247
A_0     C     0.1987     0.0025     0.4959
A_3     C     0.1402     0.6639     0.6743
A_0     C     0.4633     0.4261     0.8524
A_0     C     0.1841     0.5751     0.2281
A_1     C     0.1459     0.8404     0.41
A_1     C     0.5522     0.2648     0.2969
A_0     C     0.1487     0.0242     0.9383
A_3     C     0.6302     0.2642     0.4247
A_1     C     0.8467     0.6564     0.943
A_0     C     0.6701     0.6673     0.6485
A_2     C     0.626     0.1432     0.5883
A_0     C     0.6073     0.4118     0.3333
A_0     C     0.121     0.8856     0.909
A_3     C     0.0578     0.0787     0.2634
A_3     C     0.6682     0.5062     0.0215
A_0     C     0.7709     0.4041     0.7046
A_3     C     0.0749     0.885     0.1022
A_1     C     0.6342     0.5184     0.3293
A_0     C     0.0666     0.8029     0.9227
A_3     C     0.9867     0.2924     0.9057
A_3     C     0.9222     0.4174     0.0803
A_3     C     0.3986     0.2745     0.9254
A_1     C     0.7046     0.1167     0.159
A_1     C     0.5464     0.6908     0.6699
A_2     C     0.4396     0.2018     0.2181
A_3     C     0.8086     0.0486     0.7923
A_2     C     0.8413     0.5522     0.2758
A_1     C     0.6091     0.8764     0.276
A_0     C     0.3657     0.2766     0.3623
A_1     C     0.1661     0.0327     0.3347
A_2     C     0.245     0.1338     0.5826
A_2     C     0.9164     0.3136     0.9596
A_3     C     0.2648     0.7607     0.4211
A_0     C     0.447     0.511     0.1603
A_1     C     0.7854     0.1981     0.8024
A_2     C     0.7388     0.0783     0.9189
A_1     C     0.6471     0.5699     0.7543
A_3     C     0.4715     0.5906     0.1323
A_0     C     0.9746     0.0557     0.6983
A_0     C     0.2727     0.6309     0.7402
A_0     C     0.9297     0.4819     0.6102
A_2     C     0.5385     0.8983     0.441
A_0     C     0.8341     0.312     0.7344
A_2     C     0.2888     0.2544     0.7139
A_3     C     0.6423     0.2329     0.4999
A_0     C     0.7579     0.5482     0.3083
A_0     C     0.9046     0.6496     0.3694
A_0     C     0.0071     0.7087     0.9366
A_0     C     0.7541     0.0266     0.5114
A_0     C     0.8773     0.6755     0.1676
A_0     C     0.9311     0.5351     0.0827
A_3     C     0.3344     0.8133     0.1334
A_0     C     0.6632     0.6764     0.78
A_2     C     0.8882     0.0284     0.6531
A_2     C     0.4996     0.7617     0.5107
A_0     C     0.4952     0.0996     0.7758
A_3     C     0.0805     0.8537     0.3323
A_0     C     0.3385     0.0303     0.521
A_1     C     0.5915     0.7545     0.9098
A_3     C     0.0725     0.1675     0.6397
A_3     C     0.0962     0.5097     0.3962
A_1     C     0.7207     0.9305     0.4102
A_2     C     0.6659     0.358     0.6261
A_1     C     0.0049     0.3154     0.692
A_1     C     0.8019     0.0483     0.3154
A_1     C     0.0689     0.2745     0.2663
A_0     C     0.1828     0.3658     0.7974
A_1     C     0.5316     0.4948     0.2318
A_2     C     0.2363     0.8596     0.1862
A_3     C     0.1977     0.7855     0.6365
A_2     C     0.2078     0.853     0.8588
A_0     C     0.4074     0.6185     0.2897
A_3     C     0.5074     0.0067     0.8233
A_0     C     0.2497     0.7863     0.6493
A_2     C     0.5899     0.2012     0.7988
A_2     C     0.0603     0.9315     0.8784
A_0     C     0.3127     0.4015     0.8755
A_3     C     0.1102     0.0613     0.2428
A_3     C     0.4714     0.5839     0.7582
A_1     C     0.5038     0.0035     0.7588
A_2     C     0.5979     0.8378     0.6828
A_0     C     0.34     0.8416     0.8703
A_1     C     0.9119     0.901     0.6666
A_2     C     0.4663     0.9431     0.127
A_0     C     0.3773     0.3418     0.3336
A_3     C     0.2579     0.4445     0.035
A_0     C     0.0012     0.1112     0.2178
A_0     C     0.1974     0.2443     0.7466
A_0     C     0.7479     0.8153     0.4941
A_2     C     0.7124     0.4685     0.2699
A_1     C     0.8619     0.4345     0.551
A_3     C     0.4088     0.4833     0.6451
A_0     C     0.8975     0.1254     0.3885
A_2     C     0.8452     0.8947     0.0604
A_1     C     0.6224     0.0249     0.2347
A_1     C     0.2633     0.5004     0.6714
A_1     C     0.386     0.0386     0.1219
A_0     C     0.1852     0.0248     0.5352
A_0     C     0.9661     0.5744     0.2806
A_0     C     0.4124     0.7615     0.2976
A_0     C     0.0576     0.2659     0.5447
A_1     C     0.6957     0.7205     0.7283
A_2     C     0.212     0.0944     0.6634
A_1     C     0.9202     0.5832     0.5509
A_2     C     0.7469     0.7423     0.5127
A_3     C     0.096     0.5257     0.1764
A_2     C     0.0677     0.4609     0.9031
A_2     C     0.6841     0.8294     0.2515
A_0     C     0.4897     0.4396     0.0552
A_1     C     0.0393     0.3537     0.0603
A_2     C     0.4661     0.4964     0.3388
A_1     C     0.0953     0.4264     0.9318
A_3     C     0.2245     0.6523     0.1325
A_2     C     0.4504     0.8779     0.317
A_2     C     0.4348     0.679     0.9272
A_1     C     0.6956     0.4058     0.0241
A_1     C     0.7211     0.1485     0.6228
A_3     C     0.7055     0.2956     0.9802
A_1     C     0.552     0.7002     0.7896
A_3     C     0.5584     0.7558     0.454
A_2     C     0.689     0.3664     0.7265
A_0     C     0.3674     0.6271     0.4571
A_2     C     0.6386     0.3825     0.5365
A_3     C     0.8741     0.5353     0.7895
A_0     C     0.2901     0.018     0.3199
A_0     C     0.7854     0.9394     0.645
A_1     C     0.955     0.2886     0.5249
A_3     C     0.5113     0.4179     0.6028
A_1     C     0.8012     0.7115     0.7078
A_2     C     0.1642     0.2751     0.6965
A_3     C     0.6753     0.756     0.5146
A_2     C     0.1539     0.0715     0.7096
A_3     C     0.1318     0.5583     0.0139
A_2     C     0.0128     0.2707     0.0196
A_1     C     0.436     0.7692     0.8246
A_0     C     0.8463     0.9692     0.3214
A_0     C     0.9682     0.9827     0.7216
A_0     C     0.48     0.6251     0.3879
A_1     C     0.0093     0.0487     0.7263
A_3     C     0.1501     0.0735     0.2582
A_2     C     0.5971     0.5665     0.0627
A_2     C     0.5241     0.8192     0.9033
A_1     C     0.2926     0.9562     0.8858
A_1     C     0.1556     0.1944     0.2279
A_0     C     0.8018     0.0736     0.5683
A_3     C     0.6716     0.9406     0.825
A_2     C     0.3588     0.312     0.5537
A_3     C     0.0806     0.7685     0.9457
A_0     C     0.2607     0.631     0.7078
A_2     C     0.7612     0.3958     0.3948
A_2     C     0.4465     0.1714     0.8466
A_1     C     0.7632     0.6016     0.2592
A_3     C     0.1261     0.8829     0.7798
A_2     C     0.4205     0.8556     0.6998
A_3     C     0.9037     0.3306     0.2478
A_3     C     0.5162     0.9493     0.6723
A_2     C     0.3041     0.2238     0.4219
A_2     C     0.4012     0.2653     0.4731
A_3     C     0.8427     0.6549     0.6572
A_3     C     0.3003     0.1311     0.3863
A_0     C     0.7739     0.9543     0.5717
A_1     C     0.3862     0.841     0.0986
A_3     C     0.0547     0.2762     0.3072
A_1     C     0.8595     0.2468     0.9791
A_2     C     0.8556     0.3772     0.5285
A_2     C     0.4958     0.3148     0.971
A_1     C     0.554     0.7965     0.3886
A_0     C     0.115     0.9246     0.0697
A_3     C     0.4149     0.0476     0.0606
A_3     C     0.3212     0.8462     0.7872
A_2     C     0.419     0.843     0.3932
A_3     C     0.7881     0.5941     0.0119
A_2     C     0.7975     0.1813     0.9739
A_1     C     0.4071     0.7158     0.7486
A_1     C     0.5296     0.2634     0.8695
A_1     C     0.9397     0.8463     0.9713
A_0     C     0.5625     0.6937     0.6495
A_1     C     0.8461     0.873     0.8363
A_2     C     0.7461     0.3059     0.2874
A_2     C     0.618     0.4697     0.4499
A_2     C     0.7816     0.8611     0.4507
A_0     C     0.5664     0.267     0.026
A_2     C     0.8711     0.1474     0.3398
A_0     C     0.5423     0.6168     0.6542
A_0     C     0.7078     0.2247     0.4762
A_2     C     0.7294     0.2953     0.9577
A_0     C     0.4613     0.973     0.3883
A_0     C     0.2372     0.2575     0.9326
A_3     C     0.2507     0.9095     0.894
A_2     C     0.9499     0.998     0.8855
A_1     C     0.1588     0.2065     0.3302
A_1     C     0.6134     0.9195     0.9814
A_2     C     0.1414     0.9736     0.3452
A_0     C     0.7966     0.6593     0.8535
A_2     C     0.9295     0.2948     0.782
A_1     C     0.9076     0.5432     0.1324
A_3     C     0.8973     0.3403     0.4926
A_0     C     0.924     0.6663     0.8439
A_3     C     0.1539     0.2568     0.1748
A_3     C     0.673     0.0068     0.8073
A_2     C     0.7912     0.298     0.3742
A_2     C     0.2187     0.8105     0.4152
A_1     C     0.743     0.1771     0.7028
A_2     C     0.5769     0.5184     0.9695
A_0     C     0.546     0.5589     0.4731
A_2     C     0.7519     0.2589     0.019
A_1     C     0.8996     0.8183     0.6473
A_3     C     0.5729     0.0471     0.9498
A_2     C     0.3662     0.6321     0.1302
A_3     C     0.3857     0.2738     0.3894
A_1     C     0.2122     0.1429     0.2939
A_1     C     0.8341     0.5878     0.0782
A_2     C     0.698     0.1862     0.0922
A_0     C     0.8099     0.3626     0.9268
A_3     C     0.1554     0.1558     0.0963
A_1     C     0.9948     0.3972     0.5171
A_3     C     0.6528     0.4036     0.9279
A_0     C     0.2378     0.3865     0.2317
A_2     C     0.3862     0.4179     0.2496
A_2     C     0.4961     0.871     0.8959
A_2     C     0.5513     0.6935     0.5593
A_3     C     0.602     0.3605     0.0455
A_1     C     0.0964     0.0889     0.4409
A_2     C     0.0693     0.8415     0.0818
A_0     C     0.829     0.8817     0.8869
A_3     C     0.3447     0.2454     0.277
A_2     C     0.5644     0.8493     0.0327
A_1     C     0.4968     0.3021     0.8148
A_2     C     0.8472     0.845     0.4984
A_3     C     0.237     0.1478     0.8414
A_3     C     0.9625     0.2772     0.8219
A_2     C     0.2921     0.0049     0.1332
A_2     C     0.9287     0.0304     0.0313
A_0     C     0.2774     0.4964     0.3005
A_0     C     0.664     0.7478     0.5534
A_1     C     0.361     0.4605     0.5317
A_1     C     0.6471     0.9467     0.473
A_1     C     0.9024     0.2101     0.2521
A_2     C     0.9856     0.7533     0.1605
A_0     C     0.1271     0.0244     0.3431
A_3     C     0.6888     0.8454     0.8253
A_3     C     0.4773     0.1809     0.5979
A_2     C     0.4556     0.143     0.5525
A_2     C     0.7939     0.6132     0.1396
A_0     C     0.7222     0.2969     0.7329
A_1     C     0.9373     0.9522     0.4862
A_2     C     0.8938     0.5273     0.1581
A_3     C     0.0849     0.7513     0.0321
A_2     C     0.9901     0.788     0.3355
A_1     C     0.2868     0.0354     0.169
A_1     C     0.874     0.611     0.9683
A_1     C     0.3678     0.5212     0.9002
A_2     C     0.3898     0.7655     0.1243
A_3     C     0.6785     0.2656     0.1295
A_1     C     0.2433     0.1806     0.6799
A_1     C     0.641     0.1817     0.1122
A_3     C     0.1394     0.49     0.8491
A_3     C     0.8095     0.2055     0.0781
A_0     C     0.0896     0.3506     0.5409
A_0     C     0.2398     0.7023     0.2818
A_3     C     0.597     0.2107     0.3285
A_1     C     0.7974     0.7039     0.0064
A_3     C     0.3495     0.97     0.3452
A_2     C     0.7875     0.7471     0.3352
A_2     C     0.4266     0.6003     0.4
A_1     C     0.4513     0.3426     0.4077
A_2     C     0.1488     0.9036     0.5159
A_0     C     0.9612     0.6275     0.9535
A_3     C     0.5173     0.0961     0.2348
A_1     C     0.8889     0.8538     0.9318
A_0     C     0.7727     0.9466     0.3307
A_0     C     0.0977     0.2626     0.2698
A_0     C     0.8526     0.1713     0.1226
A_0     C     0.8651     0.8333     0.8044
A_2     C     0.4792     0.6348     0.907
A_0     C     0.9573     0.8706     0.4497
A_3     C     0.1774     0.2407     0.1228
A_3     C     0.1587     0.5226     0.0474
A_3     C     0.5796     0.0061     0.9899
A_0     C     0.1632     0.5432     0.5319
A_3     C     0.9138     0.5975     0.5786
A_1     C     0.7407     0.0168     0.248
A_3     C     0.4194     0.9505     0.4546
A_3     C     0.363     0.3289     0.0358
A_2     C     0.7741     0.8441     0.6174
A_2     C     0.7848     0.0201     0.4081
A_1     C     0.0785     0.5991     0.745
A_2     C     0.572     0.8657     0.7144
A_2     C     0.8732     0.9532     0.647
A_1     C     0.3272     0.1808     0.1366
A_3     C     0.3159     0.5478     0.565
A_1     C     0.7311     0.8416     0.9551
A_0     C     0.5223     0.0927     0.8126
A_0     C     0.2022     0.8238     0.4661
A_0     C     0.3218     0.7269     0.8356
A_3     C     0.7833     0.03     0.126
A_3     C     0.1659     0.9077     0.5277
A_3     C     0.4385     0.0353     0.0076
A_0     C     0.885     0.398     0.1071
A_1     C     0.7204     0.5322     0.2638
A_0     C     0.5109     0.2394     0.11
A_0     C     0.3057     0.2256     0.4638
A_0     C     0.1851     0.5997     0.3712
A_3     C     0.6925     0.2746     0.0691
A_0     C     0.2733     0.2541     0.3535
A_1     C     0.6322     0.1668     0.8506
A_1     C     0.7193     0.8485     0.1349
A_0     C     0.1032     0.2355     0.254
A_2     C     0.3524     0.4128     0.3537
A_0     C     0.4275     0.9975     0.5159
A_0     C     0.3297     0.3904     0.772
A_0     C     0.1567     0.2769     0.0359
A_3     C     0.711     0.8061     0.3006
A_0     C     0.6585     0.6729     0.6785
A_0     C     0.8046     0.9366     0.6233
A_2     C     0.3381     0.4392     0.1204
A_1     C     0.2488     0.4277     0.8406
A_2     C     0.4816     0.8616     0.6086
A_3     C     0.9429     0.1925     0.3977
A_2     C     0.0921     0.38     0.2712
A_0     C     0.131     0.8527     0.7975
A_1     C     0.2189     0.4489     0.6381
A_0     C     0.2294     0.0456     0.2378
A_3     C     0.8288     0.5915     0.6227
A_1     C     0.0978     0.1944     0.8631
A_3     C     0.6082     0.6209     0.6358
A_2     C     0.0424     0.8338     0.361
A_0     C     0.0265     0.7236     0.9269
A_0     C     0.1031     0.8218     0.0656
A_2     C     0.0724     0.6561     0.1309
A_0     C     0.7232     0.6999     0.9594
A_0     C     0.2346     0.5026     0.9145
A_2     C     0.9702     0.5118     0.3061
A_1     C     0.5517     0.4226     0.5999
A_0     C     0.0673     0.524     0.1444
A_1     C     0.1734     0.4733     0.3081
A_1     C     0.6853     0.8715     0.3231
A_0     C     0.3058     0.296     0.4732
A_0     C     0.5754     0.9987     0.3896
A_1     C     0.3494     0.373     0.4687
A_0     C     0.8383     0.687     0.0535
A_2     C     0.8477     0.3581     0.0631
A_3     C     0.4253     0.4372     0.6345
A_3     C     0.2543     0.1871     0.9905
A_3     C     0.2074     0.3875     0.3296
A_1     C     0.8393     0.5264     0.184
A_3     C     0.1311     0.3837     0.9173
A_0     C     0.7181     0.795     0.1366
A_3     C     0.9454     0.1508     0.6389
A_1     C     0.6518     0.1669     0.6612
A_1     C     0.2163     0.1411     0.066
A_1     C     0.8121     0.7922     0.3901
A_2     C     0.153     0.3293     0.5854
A_2     C     0.4694     0.5867     0.2663
A_2     C     0.5971     0.2974     0.9436
A_0     C     0.5977     0.7677     0.5212
A_0     C     0.6197     0.3968     0.2479
A_1     C     0.8486     0.5222     0.7728
A_0     C     0.2062     0.1349     0.5638
A_1     C     0.8261     0.4604     0.7427
A_3     C     0.78     0.0286     0.8264
A_2     C     0.5     0.6201     0.5655
A_0     C     0.5788     0.6992     0.9429
A_0     C     0.9436     0.2757     0.234
A_3     C     0.3707     0.0024     0.8758
A_2     C     0.4928     0.7126     0.3413
A_2     C     0.3087     0.9477     0.2113
A_0     C     0.9876     0.1555     0.0948
A_3     C     0.1184     0.166     0.3758
A_1     C     0.7658     0.2336     0.0645
A_0     C     0.8723     0.4311     0.3669
A_3     C     0.1502     0.035     0.9414
A_2     C     0.033     0.2847     0.5209
A_0     C     0.1336     0.9321     0.8618
A_2     C     0.9265     0.309     0.2806
A_0     C     0.0613     0.5035     0.7509
A_3     C     0.203     0.2089     0.1975
A_2     C     0.5486     0.4235     0.7929
A_0     C     0.7543     0.8744     0.787
A_1     C     0.8061     0.0395     0.9662
A_3     C     0.4854     0.6208     0.1844
A_3     C     0.0234     0.8602     0.6337
A_2     C     0.4188     0.1995     0.0516
A_3     C     0.0154     0.1503     0.0914
A_1     C     0.3967     0.9575     0.8436
A_1     C     0.3262     0.9294     0.1479
A_1     C     0.3086     0.5394     0.5226
A_0     C     0.6111     0.2559     0.4595
A_1     C     0.4081     0.8427     0.0206
A_0     C     0.3619     0.4954     0.2506
A_3     C     0.8026     0.3802     0.7919
A_1     C     0.643     0.3526     0.7616
A_1     C     0.5898     0.2034     0.1249
A_1     C     0.5227     0.0791     0.8342
A_0     C     0.6778     0.1867     0.8932
A_2     C     0.8863     0.3847     0.252
A_1     C     0.8888     0.1107     0.4406
A_1     C     0.512     0.4292     0.5877
A_0     C     0.3685     0.8243     0.3365
A_3     C     0.8723     0.349     0.6707
A_0     C     0.8816     0.8455     0.526
A_1     C     0.6327     0.0942     0.5688
A_3     C     0.7812     0.2093     0.2602
A_0     C     0.9164     0.881     0.0453
A_0     C     0.6226     0.049     0.7242
A_1     C     0.1604     0.9217     0.6251
A_0     C     0.1989     0.499     0.5826
A_0     C     0.9936     0.8986     0.2506
A_2     C     0.1906     0.7202     0.2074
A_1     C     0.6671     0.6749     0.6895
A_2     C     0.0325     0.4546     0.2863
A_2     C     0.4854     0.3003     0.5615
A_1     C     0.5327     0.7948     0.9448
A_0     C     0.5476     0.1971     0.5092
A_0     C     0.7557     0.5584     0.9296
A_2     C     0.6805     0.1116     0.5762
A_3     C     0.8531     0.4973     0.7928
A_2     C     0.8319     0.5244     0.2947
A_3     C     0.13     0.7516     0.0096
A_1     C     0.8237     0.7757     0.821
A_3     C     0.8525     0.8619     0.9201
A_0     C     0.4736     0.7742     0.5369
A_3     C     0.1029     0.085     0.6678
A_3     C     0.99     0.4317     0.1237
A_2     C     0.4005     0.1985     0.9178
A_2     C     0.1472     0.3204     0.6275
A_1     C     0.7486     0.0569     0.3651
A_1     C     0.6931     0.4915     0.4406
A_1     C     0.8393     0.8885     0.6764
A_3     C     0.6936     0.1497     0.1925
A_2     C     0.5805     0.2952     0.5838
A_1     C     0.698     0.8845     0.4971
A_2     C     0.4324     0.1129     0.1971
A_1     C     0.0905     0.9747     0.9509
A_2     C     0.2804     0.0578     0.8735
A_1     C     0.3722     0.5258     0.6662
A_3     C     0.0978     0.4923     0.6084
A_2     C     0.2465     0.9571     0.3547
A_1     C     0.9868     0.405     0.1948
A_1     C     0.0953     0.4114     0.3465
A_1     C     0.0203     0.0028     0.5263
A_0     C     0.7059     0.0854     0.1225
A_3     C     0.6805     0.5068     0.5075
A_3     C     0.5862     0.1753     0.8042
A_1     C     0.1031     0.2574     0.5185
A_0     C     0.0599     0.6251     0.6464
A_3     C     0.6965     0.6466     0.1334
A_0     C     0.6318     0.3991     0.1471
A_0     C     0.9628     0.563     0.0393
A_3     C     0.8717     0.0383     0.4112
A_1     C     0.7346     0.3605     0.3596
A_0     C     0.3833     0.8743     0.557
A_0     C     0.4224     0.435     0.824
A_0     C     0.9679     0.1734     0.1732
A_1     C     0.0862     0.2819     0.1876
A_2     C     0.4049     0.8377     0.8342
A_3     C     0.8232     0.9066     0.892
A_2     C     0.6761     0.4282     0.033
A_3     C     0.2454     0.0868     0.8639
A_2     C     0.4032     0.4019     0.5838
A_2     C     0.7515     0.262     0.0368
A_0     C     0.8787     0.7431     0.52
A_1     C     0.3173     0.864     0.3894
A_2     C     0.2753     0.6358     0.6454
A_1     C     0.0793     0.9721     0.9943
A_2     C     0.1384     0.56     0.6229
A_0     C     0.7218     0.0113     0.0752
A_0     C     0.7284     0.8914     0.4052
A_0     C     0.0562     0.0181     0.9256
A_3     C     0.8542     0.9414     0.2123
A_2     C     0.8858     0.0201     0.0177
A_0     C     0.251     0.5074     0.5067
A_0     C     0.7978     0.4012     0.283
A_0     C     0.3913     0.2391     0.1125
A_0     C     0.9766     0.1567     0.4724
A_2     C     0.3837     0.827     0.9177
A_2     C     0.4168     0.7812     0.0946
A_2     C     0.4158     0.396     0.3403
A_2     C     0.4519     0.9467     0.5163
A_3     C     0.2391     0.2191     0.0361
A_1     C     0.0772     0.6377     0.6519
A_0     C     0.4663     0.32     0.263
A_1     C     0.5112     0.918     0.6541
A_1     C     0.1782     0.9662     0.9861
A_1     C     0.3841     0.5977     0.3745
A_0     C     0.9564     0.565     0.4259
A_0     C     0.0561     0.4508     0.5564
A_0     C     0.3015     0.1426     0.844
A_1     C     0.1238     0.2065     0.4941
A_0     C     0.387     0.4082     0.1901
A_1     C     0.4855     0.2699     0.4774
A_3     C     0.4287     0.6022     0.2153
A_2     C     0.6942     0.53     0.4671
A_0     C     0.4913     0.9117     0.5182
A_3     C     0.6166     0.7817     0.4579
A_0     C     0.8669     0.7941     0.3103
A_1     C     0.9814     0.0836     0.8381
A_0     C     0.9678     0.4812     0.4744
A_0     C     0.4763     0.6909     0.0144
A_2     C     0.0878     0.8447     0.029
A_3     C     0.0893     0.0069     0.8743
A_1     C     0.4897     0.3919     0.5883
A_2     C     0.1761     0.5114     0.6366
A_0     C     0.7918     0.5498     0.711
A_1     C     0.2211     0.7419     0.247
A_3     C     0.1058     0.7855     0.9999
A_0     C     0.205     0.9663     0.9293
A_2     C     0.7105     0.0318     0.4331
A_0     C     0.6699     0.2675     0.3201
A_1     C     0.5975     0.1352     0.3653
A_2     C     0.2359     0.8504     0.4973
A_2     C     0.9904     0.6996     0.1522
A_0     C     0.9413     0.4032     0.5993
A_3     C     0.0505     0.5819     0.7619
A_2     C     0.956     0.8611     0.453
A_2     C     0.4781     0.937     0.8416
A_0     C     0.5309     0.8227     0.7185
A_1     C     0.7943     0.8892     0.3824
A_1     C     0.7643     0.2265     0.9147
A_3     C     0.9761     0.1888     0.379
A_3     C     0.7076     0.7911     0.6637
A_0     C     0.1306     0.7004     0.3015
A_1     C     0.4507     0.8784     0.0505
A_3     C     0.4371     0.6702     0.3908
A_3     C     0.9365     0.4528     0.8395
A_0     C     0.2834     0.5514     0.6643
A_3     C     0.2245     0.3627     0.1029
A_0     C     0.4166     0.7831     0.1499
A_2     C     0.13     0.8009     0.2214
A_0     C     0.0961     0.0323     0.2324
A_2     C     0.2412     0.1853     0.7634
A_3     C     0.0301     0.0133     0.8359
A_1     C     0.3722     0.8117     0.4247
A_3     C     0.5715     0.8832     0.6011
A_1     C     0.7458     0.0126     0.0056
A_1     C     0.1113     0.877     0.4523
A_1     C     0.5499     0.5363     0.4939
A_3     C     0.2981     0.9262     0.0385
A_3     C     0.662     0.7001     0.9973
A_2     C     0.8584     0.4595     0.6522
A_2     C     0.6053     0.2991     0.8138
A_3     C     0.1841     0.5299     0.8833
A_2     C     0.1762     0.6914     0.4506
A_2     C     0.4758     0.4996     0.9029
A_0     C     0.7531     0.0933     0.7858
A_3     C     0.1381     0.4334     0.9375
A_0     C     0.6557     0.1416     0.5366
A_1     C     0.0651     0.3889     0.0191
A_2     C     0.4257     0.7876     0.7145
A_0     C     0.7072     0.2282     0.165
A_3     C     0.0912     0.0948     0.9812
A_0     C     0.1359     0.5201     0.9042
A_2     C     0.3165     0.527     0.2825
A_1     C     0.4335     0.2013     0.1603
A_3     C     0.3385     0.8929     0.764
A_0     C     0.3238     0.9326     0.1453
A_0     C     0.2033     0.676     0.4535
A_1     C     0.0022     0.9707     0.3621
A_1     C     0.4204     0.4919     0.5237
A_0     C     0.8255     0.7571     0.371
A_2     C     0.487     0.3074     0.2889
A_1     C     0.4827     0.3708     0.3433
A_2     C     0.6785     0.7513     0.0164
A_0     C     0.1033     0.9404     0.1088
A_2     C     0.9385     0.325     0.9519
A_0     C     0.3061     0.0273     0.4493
A_1     C     0.1024     0.0235     0.1973
A_2     C     0.3365     0.4788     0.8057
A_1     C     0.9087     0.2646     0.7877
A_2     C     0.2128     0.5641     0.2033
A_2     C     0.2504     0.7578     0.2676
A_2     C     0.4175     0.9456     0.9659
A_3     C     0.4223     0.4087     0.8088
A_2     C     0.9179     0.1796     0.1166
A_0     C     0.2306     0.2893     0.4321
A_0     C     0.1399     0.9369     0.3167
A_0     C     0.952     0.1381     0.3099
A_1     C     0.1045     0.2287     0.7803
A_3     C     0.4239     0.5161     0.4998
A_3     C     0.7961     0.4392     0.352
A_3     C     0.3527     0.1141     0.7413
A_3     C     0.4079     0.466     0.7042
A_1     C     0.8148     0.8439     0.1442
A_2     C     0.7649     0.2841     0.9549
A_3     C     0.4654     0.0927     0.7667
A_3     C     0.7201     0.8807     0.4739
A_1     C     0.2246     0.0537     0.4651
A_2     C     0.74     0.2937     0.835
A_0     C     0.1439     0.4969     0.3183
A_3     C     0.2857     0.5591     0.098
A_3     C     0.043     0.5145     0.3319
A_2     C     0.5283     0.1389     0.0678
A_0     C     0.6199     0.5249     0.6825
A_2     C     0.7906     0.2941     0.178
A_1     C     0.6576     0.741     0.4917
A_2     C     0.2776     0.8551     0.1734
A_0     C     0.9142     0.4175     0.141
A_1     C     0.3561     0.2191     0.9922
A_3     C     0.5508     0.1653     0.0787
A_3     C     0.9114     0.089     0.1082
A_0     C     0.2437     0.8898     0.2102
A_0     C     0.6541     0.0554     0.8737
A_3     C     0.7486     0.1681     0.6035
A_2     C     0.991     0.8908     0.624
A_2     C     0.9346     0.0536     0.7574
A_1     C     0.8631     0.1458     0.2893
A_0     C     0.8659     0.6099     0.1074
A_2     C     0.0684     0.2619     0.3641
A_1     C     0.7848     0.4368     0.0621
A_2     C     0.388     0.1122     0.6277
A_0     C     0.4445     0.1371     0.4549
A_2     C     0.2122     0.8394     0.924
A_3     C     0.6134     0.0172     0.1645
A_1     C     0.2084     0.4031     0.7014
A_0     C     0.9644     0.0693     0.9856
A_0     C     0.657     0.0296     0.9822
A_0     C     0.1571     0.0752     0.5552
A_0     C     0.5425     0.5823     0.5584
A_2     C     0.4729     0.6778     0.9201
A_0     C     0.0087     0.5556     0.4765
A_0     C     0.7745     0.102     0.3442
A_0     C     0.8178     0.3681     0.979
A_0     C     0.5884     0.5223     0.1842
A_3     C     0.443     0.0256     0.4965
A_1     C     0.2364     0.0561     0.4306
A_0     C     0.6947     0.2048     0.183
A_2     C     0.5931     0.3304     0.4143
A_1     C     0.9527     0.8081     0.1514
A_2     C     0.9833     0.6671     0.8349
A_0     C     0.2502     0.7252     0.998
A_2     C     0.1789     0.4197     0.126
A_1     C     0.3703     0.4743     0.5677
A_3     C     0.6741     0.6349     0.4635
A_1     C     0.8735     0.8615     0.4737
A_1     C     0.4293     0.2151     0.01
A_3     C     0.6739     0.1371     0.2365
A_1     C     0.4545     0.1861     0.2842
A_1     C     0.886     0.3378     0.566
A_1     C     0.5081     0.1833     0.6862
A_3     C     0.7895     0.0436     0.0559
A_2     C     0.8654     0.4188     0.9596
A_0     C     0.8522     0.0259     0.1107
A_1     C     0.4416     0.2654     0.0462
A_3     C     0.8465     0.2076     0.241
A_3     C     0.1926     0.2505     0.2371
A_0     C     0.482     0.2159     0.9231
A_1     C     0.8246     0.0682     0.0112
A_1     C     0.0566     0.2435     0.691
A_3     C     0.5948     0.9972     0.0771
A_1     C     0.8719     0.7619     0.0457
A_0     C     0.436     0.136     0.8382
A_0     C     0.1502     0.2109     0.6838
A_0     C     0.4521     0.0468     0.7475
A_2     C     0.0207     0.544     0.6082
A_3     C     0.9095     0.7115     0.8298
A_0     C     0.615     0.8764     0.8327
A_2     C     0.0002     0.1867     0.9893
A_3     C     0.1792     0.0943     0.6301
A_1     C     0.2143     0.8986     0.3582
A_1     C     0.6364     0.9176     0.489
A_1     C     0.911     0.3361     0.4008
A_2     C     0.0676     0.9926     0.9832
A_0     C     0.0095     0.6511     0.5359
A_2     C     0.9464     0.7575     0.2965
A_2     C     0.9123     0.1845     0.0787
A_0     C     0.2139     0.0831     0.5079
A_2     C     0.3984     0.3841     0.5715
A_0     C     0.6533     0.8488     0.2953
A_1     C     0.5128     0.2967     0.0802
A_0     C     0.8452     0.283     0.82
A_1     C     0.1268     0.5615     0.2239
A_1     C     0.3879     0.9159     0.3482
A_1     C     0.5158     0.6418     0.941
A_0     C     0.9247     0.5582     0.7216
A_1     C     0.8685     0.7327     0.7747
A_3     C     0.1026     0.0809     0.5658
A_2     C     0.7445     0.0404     0.2689
A_0     C     0.5307     0.8165     0.6693
A_0     C     0.0514     0.3902     0.7296
A_3     C     0.9868     0.1242     0.6569
A_3     C     0.8789     0.4993     0.4578
A_3     C     0.8326     0.0223     0.4754
A_1     C     0.5378     0.1495     0.8768
A_2     C     0.0557     0.5558     0.1244
A_2     C     0.1669     0.5343     0.4243
A_0     C     0.4608     0.2995     0.9353
A_1     C     0.9158     0.6976     0.8395
A_1     C     0.6741     0.3503     0.9328
A_1     C     0.3217     0.4417     0.5331
A_3     C     0.2907     0.802     0.6834
A_3     C     0.6247     0.9324     0.9218
A_2     C     0.7866     0.873     0.4929
A_1     C     0.8109     0.5158     0.6404
A_0     C     0.802     0.9728     0.8287
A_2     C     0.1678     0.8256     0.5229
A_2     C     0.0014     0.8588     0.1005
A_3     C     0.2305     0.2249     0.7338
A_1     C     0.4407     0.8981     0.337
A_1     C     0.0209     0.5632     0.8687
A_1     C     0.8323     0.4453     0.1291
A_1     C     0.4518     0.9693     0.3704
A_1     C     0.014     0.8125     0.2195
A_3     C     0.0566     0.8807     0.7338
A_0     C     0.0301     0.781     0.1788
A_2     C     0.5154     0.436     0.8808
A_3     C     0.9401     0.2452     0.9114
A_3     C     0.8206     0.6622     0.0286
A_2     C     0.7571     0.3909     0.1436
A_2     C     0.7822     0.247     0.2768
A_1     C     0.631     0.0534     0.3103
A_3     C     0.6039     0.89     0.2209
A_0     C     0.0363     0.3282     0.7388
A_3     C     0.6442     0.8577     0.934
A_3     C     0.8994     0.0523     0.4582
A_1     C     0.4     0.6084     0.4593
A_3     C     0.6507     0.2715     0.6987
A_0     C     0.0738     0.6673     0.9805
A_0     C     0.9754     0.1756     0.8826
A_0     C     0.1091     0.3159     0.4224
A_0     C     0.7979     0.2995     0.4128
A_2     C     0.6     0.6472     0.9835
A_3     C     0.5564     0.3405     0.3689
A_2     C     0.2669     0.9764     0.4403
A_2     C     0.5096     0.4581     0.4968
A_0     C     0.8727     0.7678     0.1756
A_3     C     0.7167     0.8682     0.4445
A_1     C     0.8788     0.6525     0.7376
A_1     C     0.3695     0.0723     0.5734
A_2     C     0.4397     0.7292     0.9414
A_2     C     0.8898     0.4946     0.1023
A_2     C     0.4928     0.8956     0.4476
A_2     C     0.8303     0.9594     0.7538
A_1     C     0.9145     0.3866     0.1319
A_3     C     0.9225     0.0633     0.4489
A_1     C     0.944     0.5001     0.5932
A_1     C     0.143     0.663     0.1897
A_1     C     0.0984     0.7624     0.3399
A_2     C     0.9674     0.6361     0.7036
A_0     C     0.2123     0.1829     0.6795
A_3     C     0.5691     0.4933     0.4128
A_0     C     0.3642     0.3329     0.4529
A_3     C     0.6468     0.1078     0.7115
A_0     C     0.5053     0.0676     0.2225
A_3     C     0.3441     0.6531     0.2795
A_0     C     0.0671     0.8721     0.2884
A_1     C     0.9751     0.2918     0.4744
A_1     C     0.8501     0.2086     0.2298
A_3     C     0.531     0.3926     0.3462
A_0     C     0.8205     0.8041     0.2487
A_2     C     0.4204     0.5977     0.138
A_3     C     0.361     0.3389     0.0626
A_3     C     0.9285     0.0684     0.6543
A_1     C     0.413     0.0649     0.7809
A_0     C     0.0513     0.4497     0.8428
A_0     C     0.3808     0.0288     0.4499
A_3     C     0.3462     0.4864     0.2894
A_1     C     0.9665     0.8761     0.5357
A_0     C     0.3719     0.1352     0.6313
A_3     C     0.6316     0.2323     0.1827
A_1     C     0.3764     0.3158     0.7327
A_0     C     0.7704     0.9581     0.0608
A_2     C     0.1989     0.4596     0.5196
A_3     C     0.4207     0.8738     0.2496
A_0     C     0.6782     0.8597     0.1234
A_3     C     0.5413     0.1537     0.8698
A_3     C     0.2221     0.8205     0.6086
A_0     C     0.8948     0.3061     0.5118
A_0     C     0.0788     0.1502     0.2039
A_2     C     0.0618     0.6713     0.4991
A_1     C     0.5096     0.9464     0.7161
A_3     C     0.3171     0.4583     0.8096
A_3     C     0.2552     0.383     0.1751
A_0     C     0.9998     0.9235     0.4392
A_0     C     0.4645     0.1898     0.9869
A_3     C     0.0073     0.4105     0.2327
A_0     C     0.0574     0.3021     0.9485
A_2     C     0.4507     0.7229     0.1501
A_1     C     0.0985     0.6123     0.6226
A_2     C     0.2129     0.7642     0.1943
A_0     C     0.4849     0.4004     0.7968
A_3     C     0.7191     0.9796     0.4937
A_3     C     0.4049     0.06     0.3151
A_2     C     0.3723     0.7898     0.1128
A_3     C     0.2329     0.4537     0.5559
A_2     C     0.2737     0.5687     0.9048
A_2     C     0.0623     0.1393     0.2437
A_1     C     0.014     0.1091     0.4447
A_3     C     0.4274     0.6638     0.8401
A_2     C     0.3434     0.9826     0.8533
A_2     C     0.0351     0.4763     0.7569
A_2     C     0.6285     0.2933     0.468
A_3     C     0.2397     0.7251     0.1633
A_3     C     0.5041     0.6338     0.2739
A_2     C     0.5286     0.3065     0.5877
A_2     C     0.3227     0.2613     0.3499
A_2     C     0.2587     0.045     0.9037
A_1     C     0.5838     0.5371     0.8386
A_0     C     0.53     0.3404     0.9786
A_3     C     0.1256     0.9763     0.5888
A_1     C     0.9506     0.1259     0.6774
A_1     C     0.5457     0.9703     0.3186
A_1     C     0.7534     0.0824     0.412
A_3     C     0.0764     0.2361     0.412
A_2     C     0.9185     0.4661     0.8279
A_3     C     0.3955     0.6477     0.713
A_1     C     0.2282     0.4872     0.7419
A_1     C     0.7935     0.4417     0.5534
A_0     C     0.7331     0.3096     0.5161
A_1     C     0.4844     0.3482     0.5269
A_2     C     0.0968     0.5725     0.0936
A_0     C     0.4588     0.9186     0.8467
A_3     C     0.1677     0.2966     0.3298
A_0     C     0.2412     0.316     0.2023
A_1     C     0.0466     0.1893     0.6521
A_0     C     0.9856     0.4837     0.5584
A_3     C     0.1546     0.5652     0.3884
A_0     C     0.8303     0.5865     0.5695
A_0     C     0.2855     0.0296     0.8666
A_3     C     0.397     0.9313     0.0459
A_2     C     0.1013     0.9594     0.7765
A_1     C     0.8103     0.9753     0.5487
A_0     C     0.0169     0.0282     0.602
A_3     C     0.6276     0.237     0.5264
A_1     C     0.6191     0.3454     0.2631
A_1     C     0.2642     0.546     0.7243
A_3     C     0.9433     0.0963     0.2913
A_1     C     0.4666     0.7965     0.8175
A_2     C     0.5966     0.2132     0.2702
A_2     C     0.1415     0.428     0.3717
A_1     C     0.4801     0.0563     0.9825
A_1     C     0.9264     0.3052     0.7073
A_0     C     0.9047     0.8402     0.4976
A_1     C     0.3967     0.8099     0.6902
A_2     C     0.2205     0.2174     0.2672
A_0     C     0.1491     0.7667     0.8337
A_1     C     0.1027     0.4008     0.2836
A_0     C     0.0696     0.2973     0.5759
A_3     C     0.9457     0.6351     0.4089
A_3     C     0.2133     0.8308     0.1325
A_0     C     0.6207     0.1848     0.4672
A_3     C     0.9679     0.2352     0.652
A_2     C     0.9759     0.5562     0.0615
A_3     C     0.6842     0.4306     0.2532
A_3     C     0.447     0.3584     0.2798
A_0     C     0.171     0.3386     0.2175
A_1     C     0.8445     0.9107     0.5843
A_1     C     0.69     0.7494     0.9624
A_1     C     0.0571     0.9867     0.3962
A_2     C     0.6757     0.1635     0.6462
A_2     C     0.1617     0.7974     0.0601
A_2     C     0.6787     0.1451     0.0976
A_1     C     0.8773     0.9858     0.023
A_3     C     0.2954     0.1933     0.7339
A_0     C     0.1178     0.908     0.3438
A_0     C     0.5703     0.4823     0.0455
A_0     C     0.4938     0.5288     0.5069
A_3     C     0.8641     0.9056     0.5162
A_1     C     0.935     0.8434     0.2105
A_0     C     0.7946     0.5322     0.8111
A_0     C     0.5917     0.4985     0.0182
A_1     C     0.5116     0.8358     0.0739
A_3     C     0.8185     0.6871     0.3897
A_1     C     0.3585     0.3112     0.4282
A_1     C     0.3881     0.5918     0.2793
A_2     C     0.5389     0.1512     0.4685
A_0     C     0.6792     0.1424     0.1826
A_2     C     0.2592     0.9238     0.3427
A_3     C     0.3089     0.8748     0.637
A_2     C     0.0305     0.9503     0.1307
A_0     C     0.7732     0.1052     0.4978
A_2     C     0.6528     0.8689     0.7932
A_2     C     0.4525     0.3163     0.6432
A_1     C     0.717     0.2618     0.8779
A_2     C     0.2962     0.2212     0.6933
A_3     C     0.7861     0.2966     0.2212
A_2     C     0.9283     0.6232     0.662
A_1     C     0.1288     0.3488     0.7868
A_3     C     0.6551     0.9946     0.8272
A_2     C     0.485     0.7519     0.1682
A_3     C     0.2405     0.1933     0.4473
A_0     C     0.1198     0.4929     0.4799
A_3     C     0.5432     0.7126     0.4057
A_0     C     0.3026     0.5775     0.5542
A_1     C     0.7553     0.1894     0.331
A_1     C     0.2398     0.272     0.8231
A_0     C     0.9277     0.5974     0.3372
A_3     C     0.5488     0.9143     0.0069
A_0     C     0.1977     0.061     0.3979
A_1     C     0.7981     0.1827     0.9319
A_2     C     0.2305     0.3715     0.7599
A_1     C     0.0484     0.4912     0.6965
A_0     C     0.6036     0.4503     0.6787
A_1     C     0.8364     0.454     0.3521
A_3     C     0.2143     0.7433     0.6348
A_2     C     0.0826     0.6287     0.0619
A_1     C     0.172     0.4372     0.7503
A_2     C     0.0231     0.0124     0.1217
A_3     C     0.3265     0.5465     0.5115
A_2     C     0.2682     0.5687     0.3481
A_1     C     0.2482     0.995     0.8022
A_2     C     0.2872     0.6325     0.3547
A_0     C     0.4985     0.6417     0.7825
A_2     C     0.8968     0.128     0.0001
A_2     C     0.2891     0.3292     0.3627
A_3     C     0.2915     0.6359     0.062
A_3     C     0.1535     0.0869     0.2801
A_0     C     0.0687     0.6783     0.1012
A_2     C     0.2014     0.9566     0.8579
A_0     C     0.9417     0.7801     0.3882
A_3     C     0.1186     0.4239     0.2756
A_0     C     0.386     0.7114     0.0978
A_3     C     0.4319     0.3053     0.6568
A_3     C     0.1096     0.5154     0.7155
A_0     C     0.1319     0.2225     0.6947
A_3     C     0.5508     0.4251     0.4092
A_3     C     0.1012     0.9345     0.0618
A_0     C     0.1293     0.3645     0.2214
A_1     C     0.0657     0.998     0.1861
A_3     C     0.2442     0.033     0.7037
A_0     C     0.3337     0.6912     0.8409
A_0     C     0.7461     0.2654     0.6041
A_1     C     0.3818     0.1285     0.3454
A_3     C     0.3549     0.0881     0.3581
A_1     C     0.3632     0.9225     0.0425
A_3     C     0.6222     0.0592     0.7681
A_3     C     0.3725     0.3559     0.245
A_3     C     0.0309     0.9526     0.7547
A_1     C     0.903     0.3881     0.3455
A_1     C     0.8429     0.2735     0.4485
A_3     C     0.4861     0.2651     0.2717
A_3     C     0.9112     0.2672     0.0504
A_2     C     0.1402     0.2984     0.8055
A_0     C     0.6133     0.5307     0.5587
A_1     C     0.8424     0.0533     0.8509
A_2     C     0.4302     0.5289     0.4667
A_1     C     0.3361     0.0608     0.0823
A_3     C     0.0811     0.3973     0.9704
A_0     C     0.157     0.7483     0.2376
A_2     C     0.6466     0.5821     0.2878
A_0     C     0.3664     0.1829     0.1361
A_0     C     0.0605     0.587     0.3312
A_2     C     0.0131     0.023     0.6141
A_1     C     0.1961     0.236     0.0606
A_0     C     0.7351     0.9887     0.4491
A_2     C     0.573     0.5864     0.8623
A_0     C     0.5726     0.6654     0.3825
A_1     C     0.4743     0.0596     0.7876
A_1     C     0.7799     0.0897     0.2944
A_3     C     0.2711     0.6678     0.8713
A_1     C     0.2824     0.6348     0.3069
A_2     C     0.3058     0.2582     0.1123
A_1     C     0.7101     0.5773     0.3817
A_2     C     0.8241     0.4695     0.1204
A_3     C     0.2032     0.5402     0.1852
A_2     C     0.2571     0.0631     0.4326
A_1     C     0.2982     0.9827     0.1307
A_1     C     0.395     0.2492     0.4821
A_0     C     0.8874     0.5869     0.7957
A_0     C     0.0678     0.5117     0.0389
A_0     C     0.1705     0.34     0.7387
A_2     C     0.2295     0.9652     0.5689
A_1     C     0.3227     0.8398     0.4545
A_3     C     0.2786     0.8216     0.2356
A_2     C     0.7578     0.9627     0.3515
A_0     C     0.0831     0.3475     0.6532
A_2     C     0.6033     0.2379     0.0464
A_2     C     0.247     0.9954     0.8518
A_2     C     0.508     0.1741     0.787
A_0     C     0.4066     0.7176     0.8779
A_0     C     0.1363     0.7603     0.7915
A_1     C     0.1592     0.4992     0.2785
A_3     C     0.4806     0.7467     0.8603
A_1     C     0.4977     0.5093     0.5928
A_1     C     0.5998     0.1506     0.2644
A_3     C     0.7114     0.71     0.0683
A_0     C     0.0628     0.5268     0.9366
A_2     C     0.7136     0.9673     0.9863
A_3     C     0.6401     0.4555     0.7193
A_0     C     0.0165     0.1431     0.7563
A_0     C     0.4112     0.9826     0.8745
A_0     C     0.67     0.0523     0.6852
A_1     C     0.5811     0.037     0.7359
A_2     C     0.5803     0.2644     0.9426
A_2     C     0.5554     0.3957     0.689
A_1     C     0.6447     0.8992     0.0317
A_1     C     0.0974     0.0085     0.8484
A_0     C     0.5332     0.4817     0.8587
A_0     C     0.6201     0.7582     0.5149
A_1     C     0.4798     0.3512     0.4932
A_2     C     0.186     0.3774     0.9098
A_0     C     0.4974     0.8662     0.7095
A_2     C     0.3703     0.4034     0.3857
A_2     C     0.6451     0.994     0.4516
A_3     C     0.7544     0.9798     0.6036
A_2     C     0.523     0.1045     0.0067
A_2     C     0.7408     0.7474     0.5092
A_2     C     0.6724     0.548     0.9428
A_2     C     0.8182     0.7984     0.1951
A_0     C     0.3559     0.0251     0.4865
A_1     C     0.1964     0.2994     0.6047
A_1     C     0.1086     0.8623     0.1418
A_0     C     0.8908     0.3938     0.4489
A_1     C     0.5543     0.6345     0.3821
A_1     C     0.8034     0.6404     0.6392
A_3     C     0.6248     0.4762     0.3466
A_0     C     0.9492     0.4589     0.6525
A_2     C     0.1628     0.4519     0.7927
A_2     C     0.5681     0.2438     0.7995
A_1     C     0.5317     0.1754     0.9597
A_3     C     0.5596     0.8822     0.7005
A_1     C     0.0022     0.8811     0.387
A_1     C     0.4545     0.9915     0.8552
A_1     C     0.1712     0.1559     0.5508
A_1     C     0.6648     0.5549     0.372
A_1     C     0.0053     0.484     0.1397
A_0     C     0.7343     0.0499     0.2458
A_2     C     0.0197     0.461     0.7219
A_3     C     0.8293     0.1392     0.5909
A_2     C     0.683     0.7946     0.7076
A_2     C     0.4387     0.052     0.4051
A_2     C     0.7124     0.731     0.2296
A_3     C     0.8783     0.7019     0.6668
A_2     C     0.603     0.3708     0.5397
A_0     C     0.2029     0.1607     0.194
A_1     C     0.4954     0.0053     0.7295
A_2     C     0.2299     0.9922     0.4716
A_3     C     0.5193     0.0334     0.2283
A_0     C     0.2412     0.1238     0.1241
A_3     C     0.0516     0.7927     0.728
A_3     C     0.3091     0.1622     0.2612
A_0     C     0.3648     0.7235     0.5118
A_3     C     0.1999     0.6547     0.7631
A_0     C     0.9441     0.5246     0.2262
A_1     C     0.8335     0.8884     0.4624
A_1     C     0.6241     0.1092     0.1264
A_0     C     0.1206     0.1572     0.0755
A_0     C     0.647     0.4349     0.2608
A_3     C     0.1114     0.1567     0.153
A_1     C     0.2457     0.4523     0.191
A_3     C     0.188     0.6264     0.4471
A_2     C     0.212     0.4392     0.2008
A_0     C     0.6643     0.0527     0.8383
A_3     C     0.3646     0.3284     0.8337
A_2     C     0.6721     0.8079     0.4415
A_3     C     0.5009     0.5133     0.3837
A_0     C     0.2248     0.4448     0.5231
A_2     C     0.9929     0.3058     0.8836
A_0     C     0.3386     0.0214     0.965
A_2     C     0.6645     0.0347     0.3146
A_1     C     0.5764     0.8492     0.9077
A_1     C     0.0034     0.7129     0.6858
A_0     C     0.9008     0.0937     0.4993
A_1     C     0.6914     0.2832     0.0239
A_3     C     0.8341     0.3798     0.1113
A_2     C     0.6168     0.7915     0.9112
A_1     C     0.4543     0.5884     0.3967
A_1     C     0.3291     0.783     0.1744
A_1     C     0.1451     0.0003     0.7256
A_0     C     0.6899     0.819     0.1798
A_3     C     0.0972     0.2381     0.8331
A_0     C     0.2521     0.3711     0.0569
A_0     C     0.0681     0.2498     0.0392
A_2     C     0.2645     0.3254     0.0372
A_1     C     0.0927     0.6589     0.7668
A_0     C     0.8734     0.6193     0.7974
A_0     C     0.3034     0.4764     0.0477
A_2     C     0.3482     0.6455     0.1867
A_0     C     0.3245     0.5601     0.4541
A_3     C     0.6876     0.987     0.5523
A_3     C     0.8798     0.9374     0.9149
A_1     C     0.5339     0.8302     0.259
A_1     C     0.5235     0.4821     0.4272
A_2     C     0.4936     0.6059     0.8214
A_0     C     0.0637     0.8903     0.1108
A_0     C     0.5994     0.7447     0.6926
A_1     C     0.0617     0.8869     0.8055
A_3     C     0.3255     0.143     0.134
A_0     C     0.1243     0.6784     0.2185
A_2     C     0.9409     0.6256     0.2774
A_1     C     0.5489     0.4446     0.0932
A_3     C     0.3741     0.142     0.8428
A_1     C     0.5895     0.9492     0.2994
A_3     C     0.1628     0.2515     0.7993
A_0     C     0.1558     0.0786     0.6867
A_1     C     0.955     0.9971     0.6304
A_0     C     0.0428     0.4956     0.7837
A_1     C     0.2973     0.875     0.8045
A_0     C     0.5323     0.1338     0.8075
A_1     C     0.894     0.1814     0.99
A_3     C     0.1587     0.2137     0.7491
A_3     C     0.5422     0.0512     0.3941
A_3     C     0.8021     0.8463     0.5627
A_3     C     0.3928     0.0938     0.4056
A_3     C     0.4901     0.6472     0.2396
A_2     C     0.0904     0.3734     0.6882
A_2     C     0.5224     0.8094     0.5297
A_0     C     0.5585     0.2184     0.5034
A_0     C     0.105     0.8414     0.1311
A_3     C     0.3234     0.8656     0.392
A_0     C     0.1311     0.4195     0.0391
A_3     C     0.1101     0.4816     0.8532
A_0     C     0.1556     0.8934     0.307
A_3     C     0.0545     0.1916     0.2008
A_1     C     0.4085     0.8186     0.4124
A_0     C     0.5424     0.7831     0.6404
A_3     C     0.0311     0.8411     0.7189
A_0     C     0.344     0.1955     0.5106
A_1     C     0.0655     0.2316     0.8033
A_0     C     0.6987     0.2286     0.0515
A_1     C     0.0095     0.8809     0.2759
A_3     C     0.0922     0.4885     0.5849
A_1     C     0.0122     0.4657     0.8021
A_1     C     0.9719     0.2894     0.1
A_3     C     0.2643     0.5356     0.9409
A_3     C     0.5354     0.1266     0.7633
A_0     C     0.4902     0.238     0.9216
A_0     C     0.7937     0.8118     0.9109
A_0     C     0.2729     0.0495     0.3437
A_1     C     0.7266     0.8834     0.5031
A_0     C     0.415     0.6968     0.1675
A_0     C     0.6965     0.9926     0.9005
A_0     C     0.1507     0.7807     0.1937
A_1     C     0.6545     0.119     0.5119
A_2     C     0.3745     0.7367     0.5508
A_0     C     0.5368     0.6193     0.5134
A_0     C     0.221     0.0357     0.4261
A_1     C     0.7792     0.9181     0.5893
A_1     C     0.2667     0.8509     0.1217
A_1     C     0.1651     0.1736     0.139
A_1     C     0.683     0.9493     0.0466
A_1     C     0.8977     0.796     0.474
A_1     C     0.5522     0.9828     0.1201
A_2     C     0.3601     0.8266     0.3356
A_3     C     0.0032     0.3093     0.6547
A_1     C     0.1114     0.0559     0.7332
A_0     C     0.2365     0.1034     0.084
A_3     C     0.1237     0.566     0.4542
A_3     C     0.869     0.7607     0.1929
A_1     C     0.9425     0.238     0.9853
A_3     C     0.5933     0.9804     0.2067
A_1     C     0.8969     0.4763     0.6361
A_2     C     0.3041     0.5163     0.9783
A_3     C     0.2532     0.6531     0.8595
A_1     C     0.719     0.0271     0.8288
A_1     C     0.1296     0.6698     0.5166
A_1     C     0.9326     0.9772     0.373
A_1     C     0.2139     0.3587     0.9656
A_1     C     0.8909     0.6483     0.4853
A_0     C     0.911     0.725     0.1033
A_0     C     0.9035     0.2164     0.1248
A_0     C     0.6992     0.7076     0.6762
A_3     C     0.9098     0.8386     0.2065
A_3     C     0.5048     0.8785     0.9238
A_3     C     0.8883     0.3427     0.4183
A_0     C     0.8554     0.1373     0.4246
A_2     C     0.5087     0.074     0.1784
A_1     C     0.6929     0.6075     0.5351
A_0     C     0.0232     0.3949     0.7931
A_1     C     0.5962     0.6062     0.3108
A_1     C     0.7803     0.6462     0.5189
A_0     C     0.3304     0.5369     0.4555
A_2     C     0.7223     0.9763     0.3104
A_0     C     0.933     0.4282     0.6439
A_1     C     0.4743     0.9362     0.3406
A_1     C     0.3264     0.8041     0.9206
A_2     C     0.4627     0.0525     0.3707
A_2     C     0.8176     0.6112     0.1512
A_3     C     0.1823     0.9669     0.0447
A_1     C     0.9232     0.361     0.2545
A_2     C     0.1663     0.7326     0.001
A_3     C     0.9484     0.9897     0.7768
A_2     C     0.8817     0.4393     0.337
A_1     C     0.9154     0.5087     0.6404
A_1     C     0.2172     0.0299     0.8459
A_1     C     0.6342     0.8828     0.4445
A_0     C     0.5758     0.1294     0.7581
A_1     C     0.9817     0.1983     0.5536
A_2     C     0.3357     0.8032     0.7881
A_3     C     0.8231     0.7225     0.3315
A_2     C     0.3371     0.6658     0.6986
A_0     C     0.152     0.6716     0.6169
A_3     C     0.25     0.0082     0.5982
A_0     C     0.7926     0.7709     0.3839
A_0     C     0.3473     0.6782     0.2525
A_2     C     0.9842     0.3415     0.2779
A_1     C     0.2408     0.9298     0.5066
A_1     C     0.228     0.3133     0.6759
A_0     C     0.6053     0.0593     0.2526
A_3     C     0.3986     0.0329     0.755
A_3     C     0.0344     0.6515     0.8629
A_2     C     0.7637     0.3561     0.635
A_1     C     0.4129     0.7831     0.4908
A_3     C     0.1566     0.6447     0.4056
A_3     C     0.4555     0.491     0.0313
A_0     C     0.9636     0.0457     0.2397
A_2     C     0.2792     0.5131     0.6923
A_1     C     0.5472     0.9888     0.3887
A_1     C     0.4927     0.5703     0.6726
A_3     C     0.3441     0.8697     0.3356
A_3     C     0.4608     0.3415     0.15
A_0     C     0.7179     0.5529     0.2918
A_0     C     0.3124     0.2717     0.5969
A_0     C     0.951     0.0464     0.4239
A_1     C     0.765     0.3164     0.9126
A_1     C     0.5296     0.932     0.3691
A_2     C     0.2371     0.3105     0.5472
A_0     C     0.1212     0.2447     0.2568
A_1     C     0.4941     0.4822     0.3543
A_0     C     0.4545     0.9968     0.2205
A_1     C     0.6081     0.3331     0.9844
A_1     C     0.2129     0.9942     0.0647
A_3     C     0.0815     0.9372     0.8624
A_3     C     0.3483     0.6885     0.8886
A_1     C     0.5909     0.0538     0.0576
A_1     C     0.9993     0.571     0.3705
A_3     C     0.2029     0.3819     0.9356
A_3     C     0.0807     0.5801     0.3056
A_0     C     0.6135     0.7063     0.7358
A_1     C     0.6972     0.93     0.9716
A_2     C     0.3779     0.9071     0.6018
A_3     C     0.6246     0.6795     0.3118
A_2     C     0.5047     0.3485     0.966
A_2     C     0.3939     0.0588     0.0601
A_2     C     0.2041     0.4584     0.4165
A_3     C     0.2974     0.7346     0.0507
A_3     C     0.1144     0.8277     0.7286
A_2     C     0.7489     0.365     0.1834
A_2     C     0.3177     0.9695     0.1
A_2     C     0.6416     0.048     0.3963
A_3     C     0.8873     0.8594     0.7007
A_3     C     0.1521     0.5164     0.7225
A_3     C     0.971     0.3762     0.5668
A_2     C     0.8354     0.957     0.8225
A_2     C     0.7308     0.256     0.2022
A_3     C     0.7257     0.8147     0.1511
A_3     C     0.7608     0.9402     0.5547
A_1     C     0.1481     0.0056     0.2248
A_2     C     0.2211     0.4004     0.8191
A_3     C     0.4858     0.2113     0.7324
A_1     C     0.5768     0.7697     0.8806
A_0     C     0.461     0.1906     0.1597
A_3     C     0.9339     0.8544     0.8046
A_1     C     0.4436     0.4828     0.313
A_1     C     0.6385     0.1298     0.4438
A_1     C     0.8844     0.7589     0.0316
A_0     C     0.4055     0.9812     0.6217
A_3     C     0.0204     0.7559     0.6039
A_2     C     0.6649     0.4327     0.8906
A_2     C     0.2983     0.3642     0.599
A_2     C     0.2067     0.9589     0.732
A_1     C     0.3227     0.6316     0.922
A_0     C     0.4848     0.8297     0.9939
A_1     C     0.0623     0.8972     0.165
A_1     C     0.6045     0.6187     0.7206
A_0     C     0.1558     0.6421     0.4154
A_2     C     0.3099     0.5089     0.0693
A_0     C     0.1035     0.9166     0.1403
A_0     C     0.2704     0.028     0.6169
A_3     C     0.1571     0.8914     0.9745
A_2     C     0.8626     0.572     0.0047
A_0     C     0.7531     0.3801     0.3483
A_2     C     0.0148     0.4167     0.1772
A_1     C     0.1086     0.0555     0.2142
A_1     C     0.1156     0.1357     0.9325
A_1     C     0.6431     0.1482     0.9028
A_2     C     0.0335     0.346     0.5563
A_3     C     0.1951     0.7136     0.3406
A_0     C     0.3018     0.9132     0.2139
A_2     C     0.0569     0.1561     0.0687
A_1     C     0.9799     0.206     0.9162
A_2     C     0.2805     0.261     0.4773
A_3     C     0.2952     0.2857     0.8156
A_0     C     0.9197     0.0354     0.279
A_0     C     0.3965     0.5615     0.712
A_2     C     0.6586     0.2539     0.2355
A_2     C     0.8923     0.6642     0.0611
A_2     C     0.0659     0.3651     0.9027
A_3     C     0.7881     0.2531     0.9063
A_3     C     0.3931     0.514     0.7959
A_3     C     0.8878     0.4792     0.2129
A_3     C     0.1964     0.2363     0.6511
A_3     C     0.2419     0.285     0.3342
A_3     C     0.3141     0.0457     0.54
A_2     C     0.8077     0.2749     0.2488
A_0     C     0.7663     0.9437     0.614
A_2     C     0.7428     0.62     0.0588
A_3     C     0.1571     0.8983     0.6518
A_0     C     0.5749     0.2127     0.6076
A_0     C     0.046     0.7306     0.6875
A_0     C     0.5031     0.6568     0.5297
A_0     C     0.8938     0.3671     0.4029
A_2     C     0.5632     0.3365     0.0617
A_2     C     0.5628     0.5233     0.3532
A_0     C     0.6631     0.0016     0.5524
A_1     C     0.8045     0.2881     0.6967
A_2     C     0.2491     0.5403     0.3844
A_2     C     0.1213     0.3117     0.3108
A_0     C     0.4918     0.8352     0.7447
A_2     C     0.0288     0.0457     0.9938
A_2     C     0.8736     0.6801     0.718
A_3     C     0.6008     0.3163     0.104
A_2     C     0.0049     0.3263     0.4765
A_0     C     0.611     0.199     0.1551
A_0     C     0.9829     0.7832     0.889
A_2     C     0.1025     0.1884     0.2856
A_0     C     0.8339     0.8216     0.8715
A_0     C     0.3507     0.2704     0.8149
A_2     C     0.0645     0.3649     0.7625
A_3     C     0.2706     0.7592     0.4394
A_1     C     0.7336     0.2254     0.8489
A_2     C     0.1968     0.7023     0.6313
A_0     C     0.8614     0.9558     0.2642
A_0     C     0.9891     0.933     0.6873
A_3     C     0.127     0.4002     0.4867
A_1     C     0.627     0.4209     0.8621
A_0     C     0.8998     0.3623     0.6168
A_3     C     0.4849     0.3969     0.022
A_0     C     0.0098     0.565     0.1717
A_2     C     0.544     0.0411     0.3678
A_3     C     0.0051     0.9894     0.2131
A_3     C     0.5855     0.4775     0.4126
A_1     C     0.2374     0.9324     0.6322
A_0     C     0.3004     0.1639     0.4312
A_1     C     0.5404     0.0773     0.5884
A_2     C     0.7202     0.2646     0.2913
A_2     C     0.1381     0.1313     0.35
A_3     C     0.5088     0.1202     0.6657
A_3     C     0.7568     0.4143     0.3782
A_2     C     0.0118     0.5456     0.8244
A_0     C     0.9407     0.2379     0.9471
A_1     C     0.4907     0.808     0.9739
A_3     C     0.5378     0.8885     0.1199
A_2     C     0.5944     0.1792     0.6605
A_2     C     0.6644     0.9974     0.9808
A_0     C     0.1524     0.567     0.8972
A_3     C     0.5945     0.8624     0.5549
A_0     C     0.2518     0.3894     0.4028
A_3     C     0.9276     0.1634     0.2845
A_1     C     0.4877     0.94     0.8293
A_0     C     0.0074     0.3734     0.675
A_1     C     0.5319     0.9619     0.194
A_0     C     0.309     0.5975     0.1799
A_2     C     0.4404     0.423     0.467
A_1     C     0.1227     0.4568     0.2289
A_1     C     0.4768     0.4562     0.4803
A_1     C     0.5907     0.6625     0.049
A_2     C     0.9623     0.1177     0.3878
A_3     C     0.865     0.0267     0.1915
A_2     C     0.3363     0.8933     0.8693
A_2     C     0.9074     0.3159     0.3874
A_2     C     0.4536     0.7725     0.8379
A_3     C     0.3614     0.0828     0.174
A_3     C     0.6463     0.7591     0.3685
A_3     C     0.9264     0.3334     0.3839
A_3     C     0.732     0.1978     0.3999
A_0     C     0.8744     0.5927     0.5018
A_2     C     0.7887     0.123     0.8281
A_0     C     0.9161     0.5538     0.6522
A_2     C     0.5967     0.1685     0.2706
A_0     C     0.4842     0.2008     0.5635
A_1     C     0.0221     0.8395     0.0061
A_3     C     0.7195     0.9846     0.6355
A_1     C     0.4795     0.1929     0.3888
A_0     C     0.1345     0.3375     0.7765
A_0     C     0.4976     0.8524     0.8259
A_1     C     0.3124     0.0082     0.9749
A_3     C     0.0904     0.4124     0.9458
A_3     C     0.7204     0.8762     0.9403
A_0     C     0.4639     0.5149     0.1482
A_3     C     0.0921     0.0476     0.6656
A_2     C     0.0136     0.0798     0.8385
A_0     C     0.0076     0.0212     0.9742
A_1     C     0.8871     0.5762     0.4706
A_0     C     0.5422     0.6588     0.2173
A_1     C     0.4095     0.913     0.2067
A_1     C     0.9304     0.6078     0.9979
A_1     C     0.0854     0.4449     0.651
A_0     C     0.1739     0.9631     0.4621
A_2     C     0.3761     0.9643     0.4939
A_1     C     0.488     0.3157     0.1037
A_1     C     0.5009     0.5328     0.5265
A_0     C     0.5887     0.3518     0.1025
A_1     C     0.6844     0.4306     0.8029
A_1     C     0.3986     0.5353     0.3064
A_0     C     0.8947     0.9028     0.5053
A_2     C     0.6475     0.0717     0.7754
A_1     C     0.4748     0.2491     0.1943
A_1     C     0.1532     0.7123     0.7452
A_3     C     0.3377     0.3297     0.983
A_3     C     0.0107     0.4924     0.753
A_3     C     0.3047     0.6912     0.5426
A_3     C     0.9971     0.5647     0.8027
A_0     C     0.1894     0.9469     0.99
A_0     C     0.2752     0.1039     0.161
A_3     C     0.0219     0.01     0.064
A_3     C     0.5761     0.5091     0.2385
A_2     C     0.3843     0.1455     0.7084
A_1     C     0.9536     0.9064     0.7
A_1     C     0.3127     0.5831     0.5315
A_2     C     0.7957     0.7935     0.8192
A_3     C     0.4881     0.7792     0.2667
A_0     C     0.0409     0.0468     0.4174
A_2     C     0.2762     0.1983     0.4259
A_1     C     0.0887     0.8293     0.8233
A_3     C     0.8961     0.0417     0.2579
A_2     C     0.5471     0.7396     0.0374
A_0     C     0.2775     0.3864     0.6382
A_1     C     0.7578     0.3485     0.5299
A_1     C     0.427     0.9275     0.65
A_1     C     0.7063     0.666     0.0146
A_3     C     0.3826     0.2167     0.5174
A_0     C     0.2829     0.2879     0.7877
A_3     C     0.7519     0.8755     0.7728
A_1     C     0.0651     0.5403     0.8264
A_3     C     0.1163     0.3296     0.2085
A_2     C     0.7801     0.1573     0.3094
A_2     C     0.9086     0.7801     0.0012
A_3     C     0.2106     0.586     0.6228
A_0     C     0.7156     0.6048     0.8551
A_1     C     0.2448     0.5191     0.2113
A_1     C     0.7233     0.5485     0.6851
A_1     C     0.4233     0.4544     0.1285
A_0     C     0.038     0.7106     0.4952
A_3     C     0.6634     0.1614     0.1111
A_2     C     0.3644     0.2422     0.8994
A_3     C     0.468     0.7393     0.075
A_0     C     0.1519     0.6595     0.0767
A_0     C     0.5679     0.0233     0.5854
A_3     C     0.1855     0.2323     0.7995
A_2     C     0.5327     0.1932     0.9271
A_0     C     0.8762     0.7959     0.576
A_2     C     0.5971     0.4217     0.0106
A_1     C     0.8527     0.7275     0.1701
A_0     C     0.2233     0.1736     0.3922
A_3     C     0.5218     0.7945     0.7536
A_0     C     0.9771     0.6558     0.4766
A_1     C     0.9406     0.5008     0.4104
A_2     C     0.4654     0.9733     0.5058
A_1     C     0.8647     0.796     0.1514
A_0     C     0.0131     0.2445     0.6242
A_1     C     0.9372     0.2231     0.5249
A_0     C     0.0358     0.0475     0.2558
A_1     C     0.6635     0.3855     0.1099
A_3     C     0.2451     0.9947     0.1643
A_1     C     0.2633     0.9241     0.1748
A_3     C     0.846     0.5451     0.6456
A_2     C     0.8754     0.2783     0.0797
A_0     C     0.1392     0.8136     0.0205
A_2     C     0.9158     0.7449     0.5733
A_3     C     0.0481     0.8236     0.0067
A_1     C     0.1584     0.9019     0.1471
A_2     C     0.4167     0.1832     0.9373
A_3     C     0.822     0.126     0.5671
A_2     C     0.0417     0.1747     0.6881
A_3     C     0.2418     0.1695     0.6935
A_1     C     0.718     0.0074     0.6517
A_3     C     0.7888     0.0584     0.0772
A_3     C     0.0043     0.2925     0.0497
A_0     C     0.0052     0.7564     0.4738
A_0     C     0.5628     0.0635     0.1358
A_3     C     0.0315     0.1949     0.1801
A_2     C     0.3833     0.2412     0.9861
A_1     C     0.9376     0.7781     0.4811
A_1     C     0.4767     0.1833     0.6744
A_3     C     0.7427     0.7837     0.6066
A_0     C     0.1053     0.2799     0.1547
A_0     C     0.6719     0.3457     0.8266
A_3     C     0.8154     0.38     0.136
A_1     C     0.8939     0.0118     0.5223
A_3     C     0.1546     0.0116     0.3674
A_1     C     0.4725     0.92     0.8974
A_0     C     0.633     0.0984     0.3798
A_3     C     0.5533     0.4856     0.7119
A_1     C     0.6366     0.6832     0.9658
A_0     C     0.112     0.8773     0.5182
A_3     C     0.0782     0.5991     0.7366
A_0     C     0.8504     0.6122     0.4962
A_2     C     0.5374     0.5563     0.7872
A_0     C     0.5001     0.34     0.9898
A_0     C     0.3505     0.6688     0.5549
A_1     C     0.3133     0.6974     0.0045
A_2     C     0.1131     0.0264     0.2204
A_2     C     0.6596     0.6371     0.2459
A_2     C     0.7335     0.9596     0.4993
A_1     C     0.5001     0.2404     0.6576
A_2     C     0.3632     0.0381     0.1488
A_1     C     0.2554     0.9559     0.249
A_2     C     0.61     0.7652     0.3902
A_0     C     0.7357     0.1373     0.5313
A_0     C     0.7061     0.6211     0.9689
A_2     C     0.13     0.845     0.9074
A_3     C     0.4078     0.1888     0.5304
A_2     C     0.2978     0.6077     0.4476
A_2     C     0.4075     0.0105     0.9849
A_3     C     0.7336     0.4261     0.5417
A_2     C     0.5717     0.916     0.9914
A_1     C     0.8981     0.2691     0.5783
A_2     C     0.2459     0.6008     0.7477
A_3     C     0.5483     0.877     0.941
A_2     C     0.9338     0.8478     0.3453
A_1     C     0.638     0.1143     0.2395
A_1     C     0.5814     0.5927     0.304
A_2     C     0.3602     0.1778     0.7014
A_3     C     0.9688     0.6165     0.6131
A_0     C     0.3574     0.1006     0.5476
A_2     C     0.3408     0.1431     0.5074
A_3     C     0.3959     0.1185     0.697
A_0     C     0.1841     0.7402     0.7045
A_0     C     0.8075     0.5796     0.7576
A_2     C     0.0161     0.4215     0.6656
A_1     C     0.5808     0.4623     0.2377
A_1     C     0.554     0.1045     0.46
A_0     C     0.8061     0.2675     0.5384
A_2     C     0.4394     0.422     0.776
A_1     C     0.6917     0.7211     0.4724
A_2     C     0.9411     0.238     0.1075
A_0     C     0.9875     0.4543     0.8095
A_0     C     0.645     0.198     0.8005
A_2     C     0.5497     0.4518     0.369
A_1     C     0.928     0.4695     0.4017
A_3     C     0.3255     0.7324     0.2872
A_1     C     0.4641     0.188     0.284
A_2     C     0.3977     0.0934     0.9205
A_1     C     0.8927     0.4343     0.3488
A_1     C     0.3622     0.9382     0.2665
A_2     C     0.4064     0.7411     0.6918
A_0     C     0.0909     0.6514     0.6898
A_0     C     0.3307     0.8533     0.6117
A_3     C     0.5392     0.7792     0.5501
A_0     C     0.1316     0.2617     0.4983
A_1     C     0.439     0.9157     0.0094
A_3     C     0.8152     0.0989     0.1659
A_3     C     0.682     0.0125     0.7947
A_1     C     0.7501     0.9499     0.6444
A_3     C     0.496     0.9965     0.1908
A_3     C     0.0271     0.2883     0.5636
A_2     C     0.065     0.4951     0.2367
A_0     C     0.6882     0.4052     0.9531
A_0     C     0.8263     0.27     0.3532
A_3     C     0.1915     0.4097     0.0638
A_0     C     0.9037     0.2246     0.8716
A_1     C     0.5229     0.4725     0.5735
A_0     C     0.4494     0.4474     0.3697
A_1     C     0.7934     0.4579     0.0937
A_0     C     0.4963     0.7431     0.2525
A_2     C     0.7341     0.6924     0.5422
A_1     C     0.099     0.2509     0.534
A_3     C     0.4479     0.3709     0.801
A_1     C     0.299     0.0656     0.5991
A_3     C     0.013     0.5798     0.3035
A_1     C     0.8656     0.7699     0.1539
A_1     C     0.3581     0.609     0.8847
A_3     C     0.5218     0.0792     0.2916
A_3     C     0.3913     0.8064     0.0868
A_3     C     0.3446     0.1567     0.0147
A_2     C     0.8675     0.784     0.6066
A_0     C     0.3836     0.215     0.1952
A_0     C     0.792     0.3311     0.2035
A_3     C     0.1089     0.5394     0.9744
A_0     C     0.0957     0.7257     0.7473
A_3     C     0.8793     0.162     0.2873
A_0     C     0.7231     0.2445     0.4344
A_0     C     0.1873     0.1506     0.0244
A_2     C     0.6712     0.0414     0.2075
A_1     C     0.5264     0.0935     0.0883
A_1     C     0.6409     0.9984     0.4779
A_0     C     0.7014     0.1536     0.7111
A_1     C     0.9368     0.5694     0.3132
A_1     C     0.7649     0.1326     0.2354
A_3     C     0.5406     0.8796     0.3966
A_0     C     0.8033     0.505     0.9145
A_2     C     0.3997     0.6101     0.8915
A_0     C     0.9125     0.6334     0.5956
A_1     C     0.6601     0.1289     0.9832
A_3     C     0.2476     0.2797     0.0625
A_2     C     0.1403     0.4876     0.3021
A_3     C     0.9709     0.6718     0.0721
A_3     C     0.0091     0.1599     0.1964
A_3     C     0.3488     0.3295     0.7828
A_3     C     0.9644     0.3659     0.1018
A_3     C     0.0311     0.0968     0.4104
A_2     C     0.1199     0.5745     0.3258
A_2     C     0.4077     0.8826     0.5671
A_3     C     0.9522     0.5895     0.5303
A_0     C     0.5196     0.8601     0.5696
A_1     C     0.086     0.601     0.3216
A_0     C     0.8805     0.7167     0.6841
A_1     C     0.5796     0.6747     0.7653
A_2     C     0.9433     0.8071     0.5254
A_0     C     0.8737     0.2953     0.975
A_3     C     0.6843     0.8896     0.3584
A_1     C     0.2153     0.5466     0.9831
A_1     C     0.8687     0.7387     0.8698
A_2     C     0.8413     0.9732     0.2466
A_2     C     0.8802     0.7793     0.082
A_1     C     0.9878     0.4819     0.6002
A_3     C     0.4687     0.2445     0.2279
A_2     C     0.3096     0.1432     0.3616
A_2     C     0.9491     0.1706     0.2408
A_1     C     0.8035     0.643     0.7842
A_2     C     0.9598     0.4853     0.0101
A_0     C     0.1392     0.7255     0.7226
A_1     C     0.5428     0.0813     0.0545
A_0     C     0.7208     0.8702     0.9334
A_3     C     0.372     0.0139     0.1428
A_2     C     0.5831     0.8045     0.9848
A_3     C     0.7404     0.9111     0.3691
A_1     C     0.0523     0.8691     0.9051
A_3     C     0.7682     0.1364     0.0173
A_0     C     0.8084     0.4696     0.8099
A_2     C     0.4303     0.589     0.7403
A_3     C     0.5761     0.7795     0.4069
A_1     C     0.6905     0.9572     0.5275
A_0     C     0.8165     0.4839     0.3725
A_2     C     0.7708     0.5192     0.7967
A_0     C     0.2892     0.1096     0.2116
A_2     C     0.2428     0.6855     0.3365
A_1     C     0.2927     0.0833     0.4458
A_2     C     0.6574     0.4392     0.598
A_3     C     0.6632     0.4922     0.1578
A_3     C     0.5101     0.055     0.0831
A_2     C     0.672     0.9245     0.3647
A_1     C     0.9357     0.0259     0.1034
A_0     C     0.4196     0.8522     0.5812
A_0     C     0.4754     0.6312     0.7711
A_2     C     0.8365     0.3051     0.6903
A_0     C     0.7678     0.1544     0.6271
A_3     C     0.9195     0.7899     0.2444
A_3     C     0.3189     0.0183     0.9713
A_2     C     0.7037     0.6087     0.0699
A_2     C     0.0853     0.4283     0.6435
A_0     C     0.8241     0.6272     0.5436
A_2     C     0.2208     0.7454     0.59
A_2     C     0.3683     0.768     0.7677
A_0     C     0.481     0.3227     0.6251
A_1     C     0.7336     0.0813     0.7439
A_2     C     0.1807     0.0755     0.0115
A_3     C     0.0937     0.6321     0.0712
A_3     C     0.0849     0.8694     0.1185
A_1     C     0.0629     0.7618     0.411
A_1     C     0.1702     0.3626     0.0096
A_0     C     0.7539     0.0916     0.4168
A_1     C     0.4776     0.7942     0.7849
A_3     C     0.5144     0.4569     0.2984
A_2     C     0.1011     0.2604     0.8756
A_2     C     0.5912     0.3926     0.9328
A_0     C     0.7643     0.4728     0.2901
A_0     C     0.1142     0.4436     0.1217
A_1     C     0.6977     0.7607     0.5811
A_0     C     0.1873     0.4935     0.088
A_1     C     0.337     0.0186     0.5721
A_1     C     0.1371     0.2399     0.7016
A_1     C     0.1336     0.3114     0.5747
A_2     C     0.5652     0.7616     0.0428
A_1     C     0.8664     0.5652     0.6972
A_3     C     0.9273     0.8096     0.0986
A_3     C     0.8195     0.2189     0.944
A_1     C     0.3478     0.7932     0.3118
A_0     C     0.8549     0.8624     0.2324
A_0     C     0.7777     0.1352     0.6285
A_1     C     0.9022     0.9422     0.5365
A_2     C     0.2829     0.9091     0.6541
A_0     C     0.8785     0.2215     0.4419
A_0     C     0.4391     0.188     0.5072
A_1     C     0.5595     0.0644     0.0559
A_0     C     0.7336     0.8511     0.7113
A_2     C     0.3116     0.4754     0.3163
A_3     C     0.988     0.6088     0.0838
A_2     C     0.4312     0.2425     0.9395
A_0     C     0.3008     0.1876     0.0236
A_3     C     0.418     0.7939     0.6103
A_2     C     0.1468     0.6496     0.2614
A_0     C     0.9425     0.867     0.6141
A_1     C     0.9261     0.8792     0.5177
A_2     C     0.7709     0.9787     0.6835
A_1     C     0.0374     0.3786     0.8529
A_2     C     0.8568     0.5087     0.8113
A_2     C     0.4468     0.275     0.5776
A_3     C     0.1098     0.2935     0.5266
A_2     C     0.5766     0.8855     0.2736
A_2     C     0.5163     0.4929     0.2974
A_0     C     0.5864     0.0592     0.0156
A_2     C     0.104     0.7624     0.1745
A_2     C     0.313     0.1629     0.809
A_0     C     0.2131     0.6289     0.321
A_1     C     0.914     0.1201     0.9895
A_1     C     0.6761     0.7429     0.9719
A_3     C     0.4293     0.1608     0.2919
A_2     C     0.7935     0.7479     0.196
A_3     C     0.9122     0.9419     0.0909
A_0     C     0.4443     0.8742     0.368
A_3     C     0.0714     0.3973     0.2127
A_2     C     0.8713     0.7147     0.577
A_0     C     0.5466     0.3136     0.0042
A_0     C     0.7052     0.5446     0.1346
A_2     C     0.4904     0.2324     0.6989
A_3     C     0.2253     0.7318     0.7038
A_2     C     0.2162     0.6164     0.339
A_1     C     0.8284     0.9366     0.9335
A_2     C     0.3479     0.9369     0.9409
A_3     C     0.9514     0.419     0.8473
A_0     C     0.0385     0.3223     0.8046
A_1     C     0.5554     0.1688     0.4161
A_0     C     0.4737     0.032     0.3216
A_3     C     0.2949     0.5062     0.4419
A_3     C     0.9226     0.9128     0.543
A_1     C     0.29     0.0841     0.3002
A_0     C     0.7886     0.7219     0.2145
A_0     C     0.6549     0.5115     0.7931
A_2     C     0.0287     0.3194     0.482
A_1     C     0.3065     0.2645     0.8705
A_1     C     0.9802     0.0478     0.1173
A_2     C     0.7728     0.9091     0.3575
A_1     C     0.9573     0.4472     0.1034
A_2     C     0.6852     0.7876     0.5359
A_3     C     0.074     0.3447     0.715
A_0     C     0.4445     0.3295     0.8406
A_1     C     0.311     0.4293     0.7172
A_1     C     0.4452     0.0158     0.593
A_2     C     0.1947     0.8047     0.7197
A_2     C     0.4173     0.4469     0.8007
A_0     C     0.4695     0.4688     0.9482
A_0     C     0.8293     0.9158     0.8421
A_3     C     0.2367     0.1769     0.4138
A_3     C     0.3557     0.3656     0.4623
A_2     C     0.0353     0.6043     0.4223
A_0     C     0.0327     0.5416     0.258
A_2     C     0.4611     0.4954     0.8789
A_0     C     0.0461     0.4153     0.589
A_0     C     0.3908     0.818     0.3199
A_2     C     0.1114     0.0168     0.0001
A_2     C     0.289     0.2895     0.7136
A_0     C     0.8785     0.2051     0.0384
A_1     C     0.9337     0.6893     0.5201
A_1     C     0.963     0.943     0.2282
A_1     C     0.4146     0.0251     0.4372
A_1     C     0.3188     0.7831     0.7007
A_3     C     0.5127     0.3165     0.3207
A_0     C     0.4632     0.4693     0.978
A_3     C     0.6661     0.3008     0.7403
A_1     C     0.7694     0.673     0.0575
A_3     C     0.8881     0.498     0.7314
A_0     C     0.1218     0.9207     0.4677
A_1     C     0.6024     0.1837     0.3015
A_2     C     0.7233     0.4269     0.0751
A_0     C     0.1247     0.2981     0.2759
A_3     C     0.3647     0.0158     0.4691
A_2     C     0.6047     0.3298     0.2727
A_3     C     0.3643     0.8035     0.2096
A_3     C     0.8645     0.9504     0.0335
A_0     C     0.8825     0.2077     0.714
A_2     C     0.9177     0.8671     0.6573
A_1     C     0.8608     0.0259     0.0952
A_1     C     0.2262     0.0691     0.6801
A_2     C     0.1638     0.8243     0.9296
A_3     C     0.5144     0.5626     0.5705
A_0     C     0.0121     0.3712     0.1897
A_0     C     0.4098     0.6134     0.1409
A_1     C     0.1649     0.3789     0.9755
A_0     C     0.3491     0.0063     0.6939
A_0     C     0.5368     0.8529     0.354
A_3     C     0.6495     0.8764     0.0381
A_0     C     0.0427     0.8867     0.9017
A_1     C     0.3029     0.9587     0.6698
A_1     C     0.6787     0.3328     0.7733
A_0     C     0.0892     0.3599     0.0765
A_3     C     0.0214     0.3284     0.8419
A_0     C     0.8977     0.5187     0.8362
A_3     C     0.2978     0.4708     0.8524
A_2     C     0.7705     0.8853     0.1996
A_2     C     0.5984     0.9534     0.7361
A_1     C     0.2657     0.3301     0.6589
A_0     C     0.7668     0.9724     0.1284
A_3     C     0.0084     0.3648     0.6059
A_1     C     0.8749     0.6568     0.8905
A_3     C     0.8495     0.5304     0.2118
A_0     C     0.2322     0.7489     0.4131
A_2     C     0.7807     0.4966     0.0169
A_2     C     0.3765     0.2342     0.6299
A_0     C     0.608     0.778     0.8359
A_1     C     0.158     0.4666     0.4176
A_2     C     0.5486     0.2846     0.9399
A_2     C     0.3384     0.6142     0.9541
A_0     C     0.9213     0.7977     0.1537
A_2     C     0.2637     0.5799     0.8703
A_2     C     0.7104     0.521     0.3882
A_3     C     0.5746     0.8606     0.1984
A_2     C     0.7502     0.955     0.3334
A_1     C     0.1     0.6772     0.2304
A_2     C     0.8935     0.1496     0.3011
A_0     C     0.0656     0.9838     0.6244
A_2     C     0.3383     0.7761     0.092
A_2     C     0.6217     0.9328     0.73
A_0     C     0.355     0.2345     0.0168
A_0     C     0.0621     0.2551     0.2527
A_2     C     0.4109     0.9895     0.8078
A_0     C     0.8123     0.6436     0.0367
A_3     C     0.4279     0.2156     0.2051
A_3     C     0.1952     0.0911     0.6351
A_2     C     0.4393     0.2887     0.7359
A_3     C     0.7369     0.6149     0.1589
A_0     C     0.646     0.0992     0.9306
A_2     C     0.0333     0.588     0.3949
A_1     C     0.1966     0.7625     0.35
A_1     C     0.6658     0.5134     0.8714
A_0     C     0.5057     0.9444     0.9024
A_0     C     0.3502     0.1802     0.6333
A_2     C     0.3294     0.7028     0.0969
A_2     C     0.3964     0.4983     0.2313
A_1     C     0.2662     0.919     0.5321
A_1     C     0.9105     0.7514     0.7046
A_0     C     0.3796     0.2589     0.5513
A_2     C     0.9353     0.3648     0.1094
A_0     C     0.1911     0.4406     0.1737
A_3     C     0.4468     0.4722     0.1154
A_1     C     0.3538     0.7962     0.394
A_2     C     0.662     0.7149     0.9884
A_3     C     0.8044     0.5458     0.0423
A_3     C     0.8279     0.5129     0.0396
A_3     C     0.1311     0.6689     0.4562
A_3     C     0.7506     0.5292     0.7577
A_0     C     0.207     0.6322     0.2745
A_2     C     0.97     0.0739     0.4722
A_1     C     0.8282     0.2988     0.9936
A_1     C     0.6449     0.5289     0.9207
A_1     C     0.8455     0.1439     0.2054
A_2     C     0.3934     0.8811     0.7822
A_1     C     0.2403     0.2799     0.5448
A_0     C     0.0247     0.0993     0.2939
A_1     C     0.0295     0.3434     0.0626
A_0     C     0.6864     0.9848     0.416
A_0     C     0.6476     0.1753     0.9189
A_1     C     0.6339     0.0891     0.5117
A_0     C     0.2778     0.1171     0.6732
A_3     C     0.7238     0.5592     0.6346
A_0     C     0.1392     0.5421     0.14
A_2     C     0.0428     0.3489     0.5542
A_3     C     0.1818     0.7831     0.7906
A_3     C     0.4014     0.2134     0.3392
A_3     C     0.5102     0.4291     0.5201
A_0     C     0.8079     0.826     0.8694
A_1     C     0.1365     0.2887     0.0468
A_0     C     0.7926     0.7749     0.9471
A_0     C     0.8617     0.3047     0.1052
A_0     C     0.0044     0.4675     0.0421
A_0     C     0.4761     0.7482     0.6285
A_0     C     0.3798     0.5791     0.0177
A_0     C     0.7915     0.1731     0.6878
A_1     C     0.4324     0.4469     0.8858
A_0     C     0.8585     0.0362     0.3629
A_1     C     0.016     0.3222     0.4769
A_2     C     0.9338     0.7744     0.2173
A_3     C     0.7101     0.2616     0.6139
A_2     C     0.249     0.025     0.1688
A_3     C     0.5217     0.0985     0.0746
A_1     C     0.3108     0.3987     0.5698
A_2     C     0.8019     0.9884     0.0629
A_3     C     0.0862     0.4643     0.1964
A_1     C     0.5246     0.0403     0.2074
A_2     C     0.8217     0.2977     0.5633
A_2     C     0.6631     0.6724     0.0126
A_0     C     0.6713     0.588     0.4781
A_1     C     0.9304     0.7818     0.8979
A_3     C     0.1577     0.6725     0.7932
A_1     C     0.2646     0.2345     0.4456
A_0     C     0.4872     0.6654     0.4094
A_1     C     0.375     0.7514     0.2481
A_1     C     0.4051     0.3905     0.4043
A_2     C     0.6776     0.8006     0.1254
A_2     C     0.5832     0.0725     0.6496
A_3     C     0.0203     0.2293     0.6993
A_3     C     0.5483     0.6221     0.3131
A_0     C     0.1353     0.8609     0.3103
A_2     C     0.4334     0.479     0.4866
A_0     C     0.4867     0.0121     0.4208
A_1     C     0.1627     0.8079     0.8404
A_1     C     0.4115     0.9877     0.1192
A_2     C     0.1543     0.7764     0.4892
A_2     C     0.8337     0.1862     0.4697
A_3     C     0.1499     0.377     0.7163
A_1     C     0.2897     0.3466     0.0904
A_0     C     0.1013     0.3025     0.2975
A_2     C     0.947     0.6026     0.3876
A_3     C     0.0766     0.2838     0.7133
A_3     C     0.6969     0.1766     0.2742
A_3     C     0.3261     0.057     0.4906
A_1     C     0.0892     0.8636     0.96
A_3     C     0.5282     0.8063     0.3175
A_1     C     0.1267     0.7489     0.354
A_3     C     0.3347     0.784     0.0896
A_0     C     0.8814     0.2682     0.7425
A_3     C     0.9673     0.3575     0.6396
A_0     C     0.4983     0.3013     0.6093
A_3     C     0.9994     0.9057     0.172
A_0     C     0.6662     0.9466     0.5171
A_0     C     0.1784     0.0951     0.5285
A_2     C     0.3883     0.6663     0.8231
A_2     C     0.5724     0.7683     0.5052
A_1     C     0.7662     0.0407     0.0546
A_3     C     0.9791     0.0333     0.3093
A_0     C     0.3999     0.5069     0.3485
A_2     C     0.1721     0.511     0.9946
A_3     C     0.3616     0.4742     0.0502
A_3     C     0.5454     0.2786     0.1074
A_0     C     0.3844     0.5038     0.8064
A_3     C     0.8302     0.8155     0.931
A_1     C     0.9821     0.6148     0.5473
A_3     C     0.3513     0.1642     0.0058
A_0     C     0.0006     0.4048     0.0848
A_0     C     0.568     0.3941     0.3813
A_1     C     0.9626     0.4935     0.032
A_2     C     0.2127     0.4417     0.3316
A_3     C     0.9271     0.6929     0.9567
A_1     C     0.9419     0.8164     0.3462
A_2     C     0.696     0.0155     0.9578
A_2     C     0.0613     0.2877     0.6593
A_3     C     0.9633     0.6488     0.4608
A_1     C     0.6778     0.3822     0.5794
A_2     C     0.6828     0.9491     0.2772
A_2     C     0.4943     0.2674     0.3019
A_3     C     0.3662     0.5838     0.0289
A_2     C     0.212     0.7705     0.8932
A_3     C     0.2341     0.0851     0.8708
A_2     C     0.5875     0.2303     0.3407
A_0     C     0.7957     0.1853     0.3886
A_0     C     0.9774     0.402     0.0547
A_0     C     0.4973     0.8465     0.2711
A_1     C     0.3531     0.0779     0.1182
A_2     C     0.5261     0.3973     0.7161
A_3     C     0.7341     0.6352     0.4333
A_0     C     0.9307     0.686     0.0123
A_2     C     0.8223     0.5108     0.0213
A_2     C     0.3152     0.6829     0.4653
A_0     C     0.8073     0.7364     0.7865
A_3     C     0.0595     0.6847     0.1955
A_1     C     0.4762     0.1096     0.0023
A_3     C     0.089     0.8038     0.6861
A_1     C     0.163     0.3605     0.646
A_2     C     0.8828     0.3203     0.3462
A_2     C     0.0354     0.8857     0.8259
A_1     C     0.6387     0.5169     0.3813
A_0     C     0.5977     0.5515     0.2641
A_2     C     0.8103     0.1137     0.8262
A_2     C     0.6488     0.7374     0.7593
A_0     C     0.8681     0.8809     0.905
A_3     C     0.8015     0.8554     0.6039
A_0     C     0.2964     0.6677     0.7492
A_3     C     0.6129     0.5117     0.3302
A_3     C     0.66     0.808     0.1753
A_0     C     0.4342     0.9541     0.041
A_3     C     0.409     0.4777     0.6072
A_2     C     0.2634     0.9519     0.1946
A_3     C     0.5879     0.6618     0.6281
A_1     C     0.4868     0.5345     0.3884
A_0     C     0.5848     0.7902     0.4227
A_3     C     0.6761     0.9943     0.7334
A_2     C     0.2234     0.9365     0.3726
A_1     C     0.8197     0.4482     0.3855
A_0     C     0.787     0.4292     0.2091
A_3     C     0.2001     0.0589     0.9674
A_0     C     0.6389     0.232     0.5807
A_3     C     0.78     0.8274     0.6175
A_0     C     0.3932     0.2724     0.6352
A_0     C     0.7092     0.435     0.2347
A_1     C     0.0641     0.8078     0.9992
A_3     C     0.5545     0.5903     0.7034
A_2     C     0.7917     0.7635     0.9131
A_2     C     0.3098     0.4731     0.638
A_0     C     0.8402     0.1702     0.7839
A_1     C     0.3627     0.112     0.4734
A_3     C     0.8794     0.3895     0.6228
A_3     C     0.8698     0.9283     0.484
A_1     C     0.2111     0.0711     0.1843
A_0     C     0.0385     0.6086     0.7663
A_3     C     0.9023     0.0404     0.8564
A_3     C     0.0388     0.0333     0.4727
A_2     C     0.2815     0.7422     0.6405
A_1     C     0.646     0.1787     0.0341
A_2     C     0.2033     0.51     0.3669
A_0     C     0.6951     0.2533     0.4635
A_1     C     0.1137     0.459     0.7778
A_0     C     0.6663     0.3046     0.6871
A_2     C     0.0743     0.5735     0.8658
A_3     C     0.241     0.7952     0.6878
A_0     C     0.3528     0.9701     0.4838
A_0     C     0.5515     0.4957     0.2107
A_2     C     0.9063     0.0518     0.1263
A_3     C     0.5638     0.6489     0.8133
A_2     C     0.1425     0.1343     0.8846
A_0     C     0.5873     0.5116     0.7445
A_0     C     0.0612     0.3356     0.7832
A_0     C     0.7873     0.5205     0.4854
A_3     C     0.2577     0.6765     0.3273
A_1     C     0.3111     0.1472     0.8896
A_1     C     0.0622     0.7788     0.1961
A_2     C     0.7125     0.6888     0.7094
A_0     C     0.7333     0.5441     0.2961
A_2     C     0.5388     0.8435     0.069
A_0     C     0.5173     0.7015     0.5171
A_2     C     0.036     0.0755     0.8352
A_0     C     0.355     0.5491     0.8913
A_1     C     0.8625     0.809     0.1543
A_3     C     0.317     0.7097     0.7865
A_0     C     0.4701     0.1183     0.8518
A_3     C     0.6244     0.7112     0.4341
A_3     C     0.9823     0.373     0.1791
A_2     C     0.1459     0.5815     0.6798
A_0     C     0.2294     0.8568     0.9121
A_3     C     0.1639     0.5506     0.3505
A_1     C     0.2824     0.0038     0.3878
A_2     C     0.3821     0.938     0.1374
A_2     C     0.3496     0.9127     0.6323
A_2     C     0.0173     0.8541     0.3345
A_2     C     0.5866     0.3344     0.3763
A_0     C     0.1432     0.5309     0.2339
A_0     C     0.0941     0.846     0.5176
A_2     C     0.686     0.3937     0.2026
A_0     C     0.4273     0.6594     0.1966
A_3     C     0.181     0.4236     0.2337
A_2     C     0.857     0.6684     0.7591
A_3     C     0.1229     0.8332     0.1978
A_3     C     0.8974     0.3755     0.182
A_3     C     0.5493     0.8074     0.4589
A_1     C     0.7173     0.7699     0.5622
A_2     C     0.8077     0.1315     0.6997
A_2     C     0.3975     0.1575     0.2816
A_2     C     0.3823     0.5253     0.644
A_0     C     0.5597     0.4551     0.2189
A_1     C     0.0662     0.7879     0.0232
A_0     C     0.2607     0.7993     0.7595
A_2     C     0.1589     0.6817     0.7701
A_1     C     0.3924     0.0448     0.0494
A_3     C     0.2242     0.4125     0.2839
A_0     C     0.7494     0.5285     0.1144
A_3     C     0.1283     0.8286     0.7329
A_3     C     0.7372     0.1906     0.6805
A_0     C     0.1321     0.1682     0.3486
A_1     C     0.3274     0.8276     0.1826
A_0     C     0.7924     0.1875     0.7967
A_3     C     0.4624     0.7104     0.5674
A_1     C     0.9482     0.0028     0.2352
A_1     C     0.8483     0.2155     0.0836
A_3     C     0.173     0.273     0.6344
A_0     C     0.2086     0.0696     0.6277
A_3     C     0.6911     0.6692     0.4966
A_2     C     0.8437     0.3689     0.9063
A_1     C     0.4334     0.3759     0.0789
A_0     C     0.3557     0.6507     0.3932
A_2     C     0.8358     0.587     0.673
A_1     C     0.2158     0.6708     0.2842
A_3     C     0.3657     0.8693     0.4893
A_0     C     0.4617     0.3784     0.4663
A_2     C     0.4608     0.0479     0.207
A_1     C     0.069     0.5607     0.7768
A_0     C     0.7578     0.5586     0.5634
A_2     C     0.0393     0.3333     0.1246
A_1     C     0.072     0.2931     0.9921
A_3     C     0.286     0.7742     0.0261
A_2     C     0.1863     0.8225     0.5481
A_0     C     0.0625     0.536     0.3616
A_2     C     0.2155     0.4951     0.2149
A_2     C     0.8447     0.7361     0.579
A_1     C     0.8828     0.8673     0.1362
A_0     C     0.199     0.9963     0.3487
A_2     C     0.6864     0.78     0.823
A_3     C     0.5245     0.7791     0.5401
A_1     C     0.7967     0.5622     0.8792
A_0     C     0.7841     0.8459     0.864
A_1     C     0.5822     0.4373     0.7225
A_2     C     0.2551     0.5007     0.4785
A_0     C     0.8195     0.8767     0.6758
A_2     C     0.5899     0.3177     0.4596
A_1     C     0.0501     0.2392     0.7396
A_2     C     0.2448     0.3458     0.37
A_0     C     0.6614     0.6216     0.3909
A_1     C     0.8579     0.8915     0.6576
A_3     C     0.471     0.6282     0.1948
A_1     C     0.3059     0.351     0.2846
A_3     C     0.73     0.4148     0.5875
A_1     C     0.5668     0.7972     0.6399
A_1     C     0.0717     0.697     0.4219
A_3     C     0.2581     0.9337     0.0305
A_0     C     0.3856     0.1116     0.4065
A_1     C     0.253     0.1625     0.5789
A_0     C     0.2209     0.6097     0.4174
A_1     C     0.2369     0.4156     0.2295
A_2     C     0.1099     0.4787     0.8954
A_1     C     0.2825     0.4114     0.3251
A_0     C     0.9307     0.3141     0.5934
A_0     C     0.4057     0.6099     0.9986
A_1     C     0.9252     0.0704     0.6211
A_2     C     0.6965     0.9591     0.1036
A_2     C     0.364     0.1143     0.5427
A_3     C     0.1017     0.597     0.2923
A_0     C     0.6556     0.1704     0.6433
A_1     C     0.1256     0.3615     0.4589
A_3     C     0.4389     0.342     0.7781
A_2     C     0.6609     0.0517     0.206
A_3     C     0.54     0.9749     0.8489
A_1     C     0.5272     0.7663     0.946
A_3     C     0.9784     0.1598     0.1987
A_1     C     0.8722     0.7651     0.7363
A_1     C     0.0147     0.7852     0.0482
A_2     C     0.754     0.1569     0.9391
A_2     C     0.4433     0.3354     0.9278
A_2     C     0.5045     0.345     0.5252
A_0     C     0.1129     0.371     0.4163
A_0     C     0.0007     0.0348     0.7378
A_1     C     0.1397     0.4981     0.0833
A_3     C     0.8686     0.8928     0.8111
A_1     C     0.6327     0.8415     0.0837
A_3     C     0.2856     0.9552     0.0428
A_2     C     0.4039     0.6389     0.0081
A_3     C     0.2038     0.2799     0.1046
A_0     C     0.5443     0.3525     0.8019
A_2     C     0.5929     0.167     0.9782
A_2     C     0.3662     0.2779     0.8987
A_3     C     0.0068     0.6003     0.1791
A_3     C     0.2192     0.5969     0.522
A_3     C     0.9279     0.0049     0.5519
A_1     C     0.9901     0.4503     0.7725
A_0     C     0.7524     0.733     0.6676
A_2     C     0.1512     0.7769     0.625
A_0     C     0.469     0.3469     0.6399
A_2     C     0.9868     0.4406     0.8135
A_0     C     0.6399     0.1711     0.3178
A_3     C     0.7726     0.4526     0.0211
A_2     C     0.9453     0.0229     0.4977
A_0     C     0.9599     0.954     0.1951
A_2     C     0.2187     0.0142     0.4395
A_0     C     0.5377     0.8585     0.6934
A_2     C     0.0599     0.6564     0.7212
A_3     C     0.2929     0.7504     0.6527
A_1     C     0.572     0.7683     0.7501
A_3     C     0.4804     0.0221     0.0739
A_2     C     0.242     0.8644     0.1954
A_3     C     0.2853     0.2194     0.8114
A_0     C     0.5382     0.4965     0.6515
A_2     C     0.4692     0.0898     0.3867
A_3     C     0.0692     0.6837     0.0986
A_1     C     0.4705     0.1228     0.5851
A_0     C     0.4044     0.2871     0.2165
A_2     C     0.4891     0.342     0.3837
A_2     C     0.3256     0.0132     0.1688
A_2     C     0.2525     0.9742     0.075
A_1     C     0.6983     0.2878     0.1051
A_2     C     0.528     0.9947     0.75
A_1     C     0.4489     0.0961     0.6391
A_0     C     0.2584     0.4338     0.0214
A_0     C     0.5111     0.597     0.3969
A_1     C     0.3629     0.3552     0.9293
A_0     C     0.914     0.162     0.6132
A_2     C     0.1407     0.8055     0.6776
A_3     C     0.6047     0.9611     0.0449
A_1     C     0.5109     0.5958     0.5328
A_0     C     0.1165     0.576     0.2371
A_1     C     0.3739     0.8946     0.411
A_3     C     0.5608     0.4697     0.7977
A_1     C     0.2723     0.3108     0.5945
A_0     C     0.4593     0.4035     0.7124
A_3     C     0.8013     0.0553     0.7246
A_3     C     0.4757     0.3574     0.9887
A_1     C     0.3836     0.2284     0.6351
A_1     C     0.6351     0.6127     0.8007
A_2     C     0.2168     0.5365     0.3417
A_2     C     0.7677     0.3126     0.7288
A_3     C     0.9986     0.5935     0.3453
A_3     C     0.1988     0.0449     0.6639
A_0     C     0.8209     0.4393     0.1882
A_3     C     0.9445     0.2424     0.4502
A_0     C     0.8954     0.877     0.2881
A_3     C     0.3696     0.2726     0.0829
A_2     C     0.353     0.9493     0.4496
A_2     C     0.0369     0.0477     0.2665
A_0     C     0.504     0.8437     0.7369
A_3     C     0.0407     0.2305     0.1112
A_0     C     0.2727     0.3599     0.2729
A_2     C     0.5406     0.4524     0.7808
A_1     C     0.1171     0.9721     0.3882
A_2     C     0.992     0.2487     0.2205
A_1     C     0.2684     0.0875     0.1044
A_2     C     0.0462     0.3879     0.5739
A_0     C     0.9907     0.8371     0.1635
A_1     C     0.0993     0.2065     0.4292
A_0     C     0.0138     0.6092     0.6246
A_3     C     0.1986     0.3236     0.878
A_2     C     0.2338     0.7983     0.7567
A_2     C     0.6262     0.5343     0.9793
A_0     C     0.8167     0.9409     0.642
A_0     C     0.9669     0.4547     0.9548
A_3     C     0.3501     0.5639     0.0489
A_0     C     0.6443     0.0855     0.217
A_1     C     0.172     0.5122     0.4012
A_2     C     0.5791     0.6169     0.9886
A_1     C     0.3786     0.4887     0.4743
A_0     C     0.439     0.4442     0.9619
A_2     C     0.2093     0.4456     0.1779
A_3     C     0.6593     0.3884     0.8571
A_3     C     0.9921     0.0886     0.2224
A_1     C     0.9599     0.3226     0.3242
A_0     C     0.3727     0.9891     0.4781
A_0     C     0.5217     0.0088     0.5335
A_0     C     0.5747     0.2981     0.0929
A_0     C     0.2145     0.5845     0.039
A_2     C     0.8855     0.296     0.8264
A_0     C     0.1869     0.8079     0.4181
A_1     C     0.9266     0.75     0.3616
A_0     C     0.9757     0.3803     0.7666
A_1     C     0.1777     0.5167     0.6506
A_0     C     0.8395     0.9383     0.279
A_0     C     0.4948     0.2943     0.9323
A_2     C     0.0061     0.6649     0.3343
A_2     C     0.4115     0.8412     0.6761
A_0     C     0.0734     0.1293     0.7757
A_2     C     0.0388     0.6311     0.7179
A_0     C     0.7605     0.2797     0.8217
A_1     C     0.8071     0.3089     0.058
A_3     C     0.0471     0.6051     0.8014
A_1     C     0.3349     0.9837     0.072
A_3     C     0.1632     0.7137     0.3539
A_1     C     0.7834     0.9598     0.0187
A_0     C     0.8818     0.0574     0.3542
A_1     C     0.2467     0.3763     0.3729
A_2     C     0.3366     0.9476     0.5967
A_2     C     0.6122     0.9363     0.2319
A_0     C     0.2476     0.2308     0.2628
A_3     C     0.1423     0.2445     0.5521
A_1     C     0.0224     0.8249     0.0462
A_0     C     0.9109     0.3773     0.8929
A_0     C     0.3256     0.9227     0.1863
A_3     C     0.3295     0.6785     0.3473
A_2     C     0.4438     0.6344     0.4739
A_3     C     0.9063     0.8669     0.8935
A_1     C     0.4221     0.026     0.5923
A_3     C     0.324     0.5273     0.7508
A_1     C     0.2685     0.3094     0.1828
A_1     C     0.5848     0.1093     0.1817
A_0     C     0.5188     0.8971     0.665
A_3     C     0.0297     0.0937     0.9415
A_0     C     0.9595     0.2707     0.1418
A_1     C     0.3308     0.5977     0.8741
A_1     C     0.2826     0.7914     0.1118
A_2     C     0.4932     0.3301     0.5232
A_0     C     0.3861     0.0602     0.4947
A_0     C     0.4135     0.4166     0.7126
A_0     C     0.29     0.4923     0.3086
A_1     C     0.7819     0.4205     0.1284
A_0     C     0.4894     0.9667     0.8153
A_1     C     0.7798     0.9799     0.4228
A_1     C     0.8193     0.2754     0.8113
A_3     C     0.4777     0.1631     0.146
A_2     C     0.5141     0.607     0.2104
A_3     C     0.6591     0.8248     0.7379
A_0     C     0.645     0.879     0.3101
A_1     C     0.3048     0.2831     0.7835
A_1     C     0.9998     0.0431     0.5615
A_3     C     0.7643     0.7646     0.1247
A_3     C     0.9675     0.9641     0.3264
A_0     C     0.7121     0.4171     0.7299
A_0     C     0.7293     0.388     0.3044
A_1     C     0.9479     0.5965     0.5302
A_2     C     0.0838     0.0763     0.5862
A_3     C     0.8225     0.3594     0.0
A_2     C     0.8482     0.9951     0.764
A_3     C     0.8732     0.636     0.9601
A_1     C     0.2254     0.1412     0.7739
A_3     C     0.7518     0.3759     0.3013
A_3     C     0.3046     0.9124     0.251
A_2     C     0.0234     0.8957     0.0664
A_2     C     0.1699     0.9749     0.8459
A_3     C     0.4359     0.0952     0.6002
A_3     C     0.8114     0.7026     0.9794
A_2     C     0.0485     0.7198     0.6887
A_1     C     0.9663     0.1268     0.3237
A_0     C     0.567     0.5656     0.2828
A_3     C     0.2112     0.4288     0.0237
A_1     C     0.7107     0.4015     0.0787
A_1     C     0.0748     0.2974     0.3594
A_0     C     0.1234     0.0863     0.6369
A_3     C     0.2201     0.8807     0.5019
A_0     C     0.8748     0.621     0.8411
A_3     C     0.3316     0.829     0.5907
A_0     C     0.9232     0.6798     0.0073
A_3     C     0.6318     0.9575     0.8611
A_1     C     0.0896     0.1599     0.4715
A_1     C     0.8412     0.9873     0.3863
A_1     C     0.237     0.956     0.1588
A_2     C     0.2415     0.8529     0.066
A_2     C     0.1782     0.6685     0.437
A_0     C     0.2715     0.4342     0.2569
A_0     C     0.1475     0.9943     0.9845
A_2     C     0.0782     0.7955     0.2891
A_0     C     0.8248     0.5483     0.154
A_3     C     0.1388     0.9646     0.0557
A_0     C     0.7093     0.4494     0.2683
A_0     C     0.8686     0.1895     0.8268
A_3     C     0.2173     0.6252     0.7978
A_2     C     0.9321     0.4945     0.9248
A_0     C     0.232     0.2933     0.7393
A_1     C     0.7264     0.1018     0.2175
A_0     C     0.5836     0.5851     0.6423
A_2     C     0.2505     0.8105     0.2432
A_3     C     0.4811     0.3226     0.7485
A_2     C     0.2986     0.5276     0.9757
A_1     C     0.6832     0.924     0.73
A_0     C     0.9426     0.8885     0.7887
A_2     C     0.1306     0.548     0.3812
A_2     C     0.7372     0.1487     0.6171
A_2     C     0.1791     0.2415     0.6493
A_0     C     0.6554     0.2748     0.7685
A_0     C     0.2621     0.6499     0.5611
A_0     C     0.4958     0.7569     0.8676
A_3     C     0.5389     0.3877     0.1939
A_2     C     0.7795     0.48     0.3635
A_2     C     0.1119     0.5558     0.212
A_0     C     0.2105     0.4333     0.4489
A_3     C     0.7526     0.3784     0.163
A_3     C     0.7534     0.3665     0.2658
A_1     C     0.803     0.1302     0.2452
A_0     C     0.6946     0.6066     0.8537
A_1     C     0.029     0.2037     0.416
A_0     C     0.854     0.0932     0.6269
A_0     C     0.3428     0.6755     0.9676
A_2     C     0.7963     0.1994     0.1141
A_3     C     0.0801     0.5391     0.0617
A_3     C     0.5857     0.3724     0.9344
A_0     C     0.5891     0.352     0.0964
A_3     C     0.2739     0.7418     0.7916
A_2     C     0.4433     0.6662     0.2685
A_3     C     0.0485     0.3213     0.5433
A_1     C     0.9711     0.6257     0.4687
A_2     C     0.4294     0.977     0.7345
A_1     C     0.1042     0.8763     0.3221
A_1     C     0.8717     0.5481     0.363
A_0     C     0.8045     0.6514     0.5372
A_3     C     0.3028     0.7241     0.1851
A_2     C     0.576     0.5259     0.2474
A_3     C     0.1679     0.2639     0.8026
A_1     C     0.4447     0.4403     0.7822
A_0     C     0.8173     0.9419     0.136
A_2     C     0.5156     0.0033     0.5569
A_0     C     0.1667     0.9462     0.7361
A_1     C     0.9608     0.1819     0.9264
A_1     C     0.9783     0.1607     0.2054
A_3     C     0.3334     0.5773     0.0537
A_0     C     0.578     0.5991     0.3808
A_1     C     0.2008     0.0172     0.3623
A_1     C     0.8394     0.256     0.3952
A_1     C     0.2453     0.1695     0.5597
A_0     C     0.0944     0.6833     0.0166
A_3     C     0.9877     0.3986     0.7442
A_1     C     0.3992     0.6408     0.3349
A_3     C     0.2843     0.1535     0.0347
A_2     C     0.736     0.0567     0.1171
A_1     C     0.693     0.2618     0.0086
A_1     C     0.5489     0.624     0.7963
A_1     C     0.8463     0.8773     0.3814
A_2     C     0.1652     0.9045     0.0832
A_1     C     0.8401     0.697     0.6885
A_3     C     0.4949     0.8781     0.4673
A_3     C     0.2442     0.7229     0.7961
A_1     C     0.9492     0.0138     0.637
A_2     C     0.7398     0.7504     0.1466
A_0     C     0.7913     0.2777     0.2875
A_1     C     0.3031     0.5107     0.1738
A_2     C     0.8505     0.1497     0.9843
A_0     C     0.0431     0.6096     0.0897
A_1     C     0.877     0.5754     0.4503
A_0     C     0.0558     0.1159     0.4097
A_1     C     0.287     0.257     0.7686
A_2     C     0.4073     0.4561     0.0688
A_3     C     0.4424     0.2309     0.568
A_0     C     0.8292     0.8317     0.8413
A_0     C     0.5972     0.0755     0.6606
A_3     C     0.4208     0.0416     0.3822
A_3     C     0.76     0.235     0.79
A_1     C     0.5063     0.0652     0.7738
A_1     C     0.6081     0.8394     0.3282
A_2     C     0.3791     0.0295     0.3675
A_2     C     0.4515     0.5347     0.0096
A_1     C     0.4959     0.0673     0.5589
A_1     C     0.5504     0.6282     0.3181
A_2     C     0.2561     0.54     0.8657
A_2     C     0.6126     0.7294     0.0236
A_1     C     0.9054     0.4248     0.1416
A_3     C     0.6136     0.9909     0.5518
A_1     C     0.7367     0.7564     0.896
A_1     C     0.4502     0.7166     0.8986
A_2     C     0.1397     0.4434     0.5123
A_2     C     0.7742     0.4723     0.2018
A_0     C     0.5402     0.1197     0.6925
A_0     C     0.6869     0.6066     0.71
A_3     C     0.3753     0.4936     0.2435
A_3     C     0.0118     0.9652     0.9761
A_1     C     0.1211     0.4976     0.8935
A_2     C     0.6258     0.8214     0.5699
A_3     C     0.3562     0.2855     0.3414
A_2     C     0.1624     0.8882     0.1357
A_2     C     0.6926     0.2797     0.6405
A_0     C     0.7527     0.4988     0.0117
A_0     C     0.2261     0.126     0.9346
A_1     C     0.8056     0.5367     0.7543
A_2     C     0.2384     0.0391     0.1457
A_0     C     0.4862     0.2073     0.0309
A_1     C     0.0929     0.1255     0.6234
A_0     C     0.198     0.7755     0.5659
A_3     C     0.8274     0.7924     0.071
A_0     C     0.9541     0.3339     0.3745
A_0     C     0.68     0.8689     0.0844
A_2     C     0.3515     0.5516     0.1792
A_1     C     0.6324     0.752     0.7234
A_0     C     0.7416     0.9486     0.3075
A_2     C     0.2874     0.5675     0.4456
A_0     C     0.0088     0.7881     0.752
A_2     C     0.5021     0.4694     0.4134
A_3     C     0.0276     0.887     0.8018
A_1     C     0.4893     0.2088     0.9382
A_3     C     0.6515     0.685     0.6113
A_2     C     0.5814     0.4587     0.3809
A_2     C     0.2121     0.1789     0.4095
A_2     C     0.8002     0.5819     0.4495
A_2     C     0.1008     0.5973     0.7923
A_0     C     0.6283     0.0673     0.8907
A_2     C     0.1262     0.6421     0.6279
A_0     C     0.8857     0.4917     0.3129
A_0     C     0.7932     0.6552     0.433
A_2     C     0.5809     0.2452     0.4072
A_1     C     0.8246     0.7161     0.6857
A_3     C     0.2172     0.3668     0.495
A_3     C     0.0383     0.3186     0.8266
A_1     C     0.6523     0.4452     0.1641
A_1     C     0.2398     0.319     0.7543
A_2     C     0.1664     0.7669     0.756
A_0     C     0.1213     0.3293     0.099
A_1     C     0.3463     0.3722     0.9935
A_1     C     0.3558     0.9829     0.815
A_0     C     0.2841     0.8233     0.297
A_1     C     0.9117     0.0876     0.7984
A_3     C     0.1757     0.5168     0.9624
A_3     C     0.694     0.1323     0.2492
A_0     C     0.0582     0.7326     0.3891
A_1     C     0.4444     0.0575     0.4061
A_3     C     0.3     0.5562     0.3966
A_0     C     0.9359     0.9073     0.8498
A_3     C     0.7156     0.6452     0.4557
A_3     C     0.4653     0.3812     0.5544
A_2     C     0.5748     0.9232     0.141
A_1     C     0.1403     0.7837     0.9251
A_1     C     0.7977     0.1118     0.1369
A_3     C     0.605     0.3425     0.2877
A_2     C     0.2797     0.827     0.8825
A_3     C     0.0701     0.1116     0.8424
A_3     C     0.6546     0.0225     0.0654
A_2     C     0.0896     0.1211     0.6864
A_2     C     0.5737     0.7838     0.0196
A_2     C     0.5453     0.544     0.1515
A_0     C     0.3801     0.0392     0.2203
A_2     C     0.9776     0.2739     0.8872
A_2     C     0.3463     0.9146     0.2495
A_0     C     0.5637     0.4292     0.7227
A_0     C     0.5077     0.4976     0.6357
A_3     C     0.5309     0.9265     0.379
A_3     C     0.6717     0.493     0.8456
A_3     C     0.8153     0.9863     0.229
A_2     C     0.7358     0.5708     0.5797
A_2     C     0.494     0.122     0.3734
A_2     C     0.8538     0.3019     0.6744
A_0     C     0.5641     0.3519     0.1698
A_2     C     0.9998     0.5163     0.5541
A_3     C     0.9283     0.4476     0.6406
A_3     C     0.9328     0.8697     0.5959
A_0     C     0.0791     0.9045     0.5558
A_2     C     0.6557     0.6391     0.1894
A_3     C     0.1478     0.1168     0.6293
A_0     C     0.287     0.8746     1.0
A_2     C     0.4862     0.1499     0.2732
A_0     C     0.7065     0.5034     0.3408
A_1     C     0.6533     0.7306     0.3213
A_3     C     0.7389     0.6191     0.41
A_1     C     0.9491     0.3648     0.6265
A_1     C     0.4219     0.0765     0.2977
A_3     C     0.9234     0.9408     0.6777
A_2     C     0.3376     0.2765     0.0917
A_3     C     0.8695     0.6993     0.8659
A_0     C     0.2503     0.0179     0.4474
A_3     C     0.3519     0.6191     0.8447
A_2     C     0.7307     0.7025     0.4729
A_0     C     0.1859     0.5244     0.3115
A_2     C     0.6795     0.3106     0.8368
A_0     C     0.4525     0.8904     0.551
A_3     C     0.3789     0.8447     0.5108
A_3     C     0.2363     0.5668     0.2384
A_1     C     0.3724     0.3172     0.5691
A_0     C     0.0698     0.7157     0.1126
A_3     C     0.8803     0.5878     0.0839
A_1     C     0.9069     0.32     0.4525
A_2     C     0.5505     0.5635     0.5018
A_0     C     0.5356     0.0303     0.3662
A_3     C     0.4464     0.7991     0.8074
A_0     C     0.5856     0.6865     0.4471
A_1     C     0.2243     0.1887     0.913
A_2     C     0.3165     0.2816     0.5221
A_2     C     0.9542     0.7309     0.4147
A_1     C     0.1566     0.7078     0.3342
A_2     C     0.8109     0.8017     0.2561
A_1     C     0.9384     0.1171     0.8913
A_3     C     0.4273     0.2821     0.9059
A_0     C     0.6581     0.4808     0.1806
A_2     C     0.826     0.3662     0.3857
A_0     C     0.2324     0.1316     0.965
A_2     C     0.766     0.9241     0.9134
A_1     C     0.524     0.7194     0.4288
A_1     C     0.6312     0.97     0.3787
A_1     C     0.2674     0.7764     0.8581
A_3     C     0.1782     0.7116     0.4372
A_2     C     0.6244     0.5403     0.2377
A_1     C     0.5655     0.5506     0.3948
A_2     C     0.3264     0.6362     0.6856
A_1     C     0.1702     0.1127     0.1342
A_0     C     0.8347     0.6012     0.2797
A_3     C     0.5644     0.8134     0.3692
A_0     C     0.1869     0.76     0.323
A_0     C     0.743     0.3675     0.6046
A_0     C     0.6295     0.3896     0.7303
A_2     C     0.2651     0.1563     0.0339
A_3     C     0.5614     0.3112     0.4309
A_0     C     0.3312     0.0088     0.102
A_0     C     0.3488     0.0045     0.0781
A_0     C     0.0369     0.3089     0.8079
A_0     C     0.7159     0.1179     0.5828
A_2     C     0.7231     0.5648     0.9655
A_2     C     0.9198     0.9015     0.6886
A_1     C     0.8989     0.3965     0.2452
A_2     C     0.2227     0.3014     0.7819
A_1     C     0.2787     0.6121     0.6043
A_0     C     0.0947     0.1997     0.6029
A_2     C     0.9009     0.8206     0.0767
A_2     C     0.1391     0.0899     0.0549
A_3     C     0.5403     0.2976     0.3652
A_0     C     0.578     0.9928     0.3118
A_2     C     0.5258     0.8848     0.4405
A_0     C     0.4572     0.9262     0.9048
A_0     C     0.9696     0.7158     0.479
A_0     C     0.7252     0.9244     0.1605
A_2     C     0.6945     0.7959     0.0657
A_0     C     0.9599     0.7553     0.961
A_0     C     0.9144     0.987     0.418
A_0     C     0.6814     0.281     0.6091
A_3     C     0.0552     0.3149     0.1736
A_1     C     0.4871     0.5059     0.2537
A_1     C     0.6412     0.9214     0.2542
A_3     C     0.5511     0.2354     0.9574
A_2     C     0.4952     0.2675     0.9065
A_2     C     0.2505     0.3697     0.5985
A_0     C     0.5177     0.9498     0.7167
A_1     C     0.1661     0.7041     0.2323
A_3     C     0.3986     0.7333     0.2276
A_1     C     0.4625     0.9896     0.6914
A_0     C     0.6468     0.7888     0.3545
A_2     C     0.8183     0.5723     0.3856
A_3     C     0.1787     0.4507     0.4146
A_2     C     0.8322     0.5025     0.8455
A_2     C     0.5287     0.0372     0.4665
A_2     C     0.6251     0.6809     0.4746
A_3     C     0.191     0.18     0.5796
A_2     C     0.5301     0.9061     0.6165
A_1     C     0.0338     0.1933     0.3542
A_2     C     0.7126     0.3828     0.9841
A_1     C     0.1062     0.5875     0.5241
A_3     C     0.4859     0.2582     0.2526
A_2     C     0.9594     0.0364     0.5576
A_1     C     0.9015     0.1106     0.2144
A_2     C     0.1345     0.8423     0.6161
A_2     C     0.0475     0.5077     0.0894
A_0     C     0.3488     0.0181     0.5014
A_2     C     0.5781     0.6988     0.6401
A_2     C     0.6595     0.1017     0.0762
A_3     C     0.3699     0.6338     0.827
A_2     C     0.1643     0.8817     0.4609
A_3     C     0.7831     0.3661     0.3824
A_3     C     0.3897     0.4213     0.5727
A_2     C     0.8538     0.3664     0.2076
A_1     C     0.8156     0.4235     0.2934
A_2     C     0.6198     0.4664     0.9298
A_3     C     0.6924     0.6297     0.3899
A_3     C     0.4718     0.0176     0.6797
A_2     C     0.6184     0.7535     0.5824
A_3     C     0.5233     0.9981     0.6747
A_3     C     0.3234     0.0603     0.5663
A_1     C     0.0886     0.9729     0.909
A_0     C     0.2726     0.3202     0.9414
A_1     C     0.3415     0.5442     0.6966
A_1     C     0.9384     0.0955     0.7765
A_1     C     0.065     0.2897     0.9417
A_3     C     0.0656     0.7429     0.0138
A_2     C     0.7909     0.2657     0.7475
A_3     C     0.6054     0.1134     0.2662
A_3     C     0.4774     0.1523     0.6204
A_1     C     0.5152     0.2063     0.8855
A_1     C     0.8595     0.4002     0.0069
A_1     C     0.0641     0.2072     0.9173
A_3     C     0.4863     0.0904     0.3429
A_3     C     0.4582     0.9549     0.1941
A_0     C     0.093     0.5249     0.8536
A_1     C     0.9669     0.7307     0.5363
A_2     C     0.3972     0.7993     0.7297
A_1     C     0.3019     0.9431     0.8833
A_0     C     0.3731     0.2987     0.1605
A_1     C     0.9169     0.4538     0.7385
A_0     C     0.2752     0.1516     0.6876
A_3     C     0.78     0.1489     0.6065
A_1     C     0.5767     0.7353     0.2299
A_2     C     0.5021     0.759     0.0914
A_0     C     0.3716     0.8216     0.7429
A_0     C     0.5107     0.5913     0.3307
A_1     C     0.6957     0.4489     0.2691
A_3     C     0.4446     0.5147     0.9848
A_1     C     0.6873     0.0132     0.4845
A_3     C     0.2232     0.2596     0.0375
A_3     C     0.5928     0.3273     0.1679
A_3     C     0.7873     0.4113     0.1384
A_3     C     0.1075     0.9498     0.4712
A_1     C     0.5458     0.846     0.3101
A_1     C     0.7984     0.1972     0.2976
A_2     C     0.5356     0.5958     0.4362
A_1     C     0.7152     0.7171     0.2231
A_2     C     0.6891     0.5763     0.3458
A_0     C     0.3693     0.657     0.9875
A_2     C     0.2508     0.9033     0.3067
A_0     C     0.4617     0.9802     0.1274
A_1     C     0.0298     0.7102     0.9571
A_3     C     0.0725     0.798     0.704
A_3     C     0.395     0.859     0.5739
A_0     C     0.357     0.4188     0.9687
A_2     C     0.5731     0.4995     0.2852
A_2     C     0.9261     0.8303     0.606
A_0     C     0.8662     0.3946     0.9799
A_1     C     0.6496     0.6849     0.281
A_2     C     0.5915     0.0194     0.8721
A_3     C     0.034     0.0418     0.0523
A_1     C     0.8341     0.7124     0.5918
A_0     C     0.9487     0.4983     0.5578
A_3     C     0.3068     0.7939     0.2837
A_2     C     0.4688     0.0649     0.4799
A_3     C     0.7372     0.5655     0.77
A_0     C     0.0451     0.2095     0.5437
A_0     C     0.817     0.5859     0.3073
A_0     C     0.0483     0.9177     0.4396
A_2     C     0.2935     0.8973     0.2958
A_0     C     0.761     0.8764     0.5692
A_2     C     0.3607     0.9189     0.4503
A_3     C     0.4661     0.5592     0.0096
A_0     C     0.9716     0.2098     0.9909
A_1     C     0.7568     0.4273     0.9825
A_2     C     0.8161     0.4799     0.1148
A_0     C     0.3239     0.5948     0.4479
A_2     C     0.1025     0.9503     0.09
A_3     C     0.6861     0.1251     0.4044
A_2     C     0.4713     0.9875     0.0897
A_2     C     0.312     0.698     0.777
A_0     C     0.919     0.1801     0.7675
A_0     C     0.289     0.0311     0.574
A_2     C     0.2629     0.5283     0.1278
A_1     C     0.1962     0.0799     0.2524
A_3     C     0.6762     0.6097     0.7302
A_2     C     0.8625     0.01     0.0735
A_3     C     0.0941     0.0053     0.1195
A_2     C     0.1612     0.3288     0.1578
A_2     C     0.6691     0.6556     0.3235
A_3     C     0.5836     0.4381     0.235
A_1     C     0.9904     0.8515     0.8801
A_1     C     0.3211     0.9294     0.4471
A_1     C     0.0642     0.9435     0.6538
A_3     C     0.7783     0.2894     0.528
A_0     C     0.6398     0.0477     0.2243
A_2     C     0.7011     0.8372     0.3747
A_1     C     0.1771     0.3922     0.2942
A_0     C     0.4811     0.3836     0.6119
A_3     C     0.3861     0.0462     0.7191
A_1     C     0.0414     0.3129     0.0277
A_2     C     0.5579     0.6875     0.9322
A_3     C     0.5384     0.5383     0.3208
A_1     C     0.1255     0.6894     0.4631
A_2     C     0.8298     0.1905     0.3137
A_0     C     0.0304     0.2287     0.3351
A_3     C     0.7163     0.4247     0.2792
A_0     C     0.457     0.2129     0.0081
A_3     C     0.5201     0.9841     0.4682
A_2     C     0.465     0.383     0.5529
A_3     C     0.525     0.9043     0.1653
A_1     C     0.7459     0.7289     0.1686
A_0     C     0.3328     0.463     0.751
A_2     C     0.541     0.3919     0.6955
A_0     C     0.0392     0.2641     0.4009
A_2     C     0.0114     0.7576     0.8216
A_1     C     0.8064     0.3007     0.0851
A_3     C     0.3231     0.1878     0.2319
A_3     C     0.7292     0.7546     0.9063
A_2     C     0.0156     0.0411     0.1023
A_3     C     0.3983     0.4477     0.3215
A_3     C     0.5838     0.2905     0.3717
A_0     C     0.0031     0.7012     0.7423
A_1     C     0.1553     0.5032     0.4877
A_3     C     0.0157     0.6194     0.1065
A_0     C     0.7508     0.7443     0.734
A_1     C     0.9316     0.6918     0.0373
A_1     C     0.1663     0.7013     0.5094
A_1     C     0.5905     0.4145     0.9596
A_1     C     0.9085     0.0722     0.5067
A_3     C     0.6349     0.7563     0.526
A_2     C     0.0693     0.3957     0.3674
A_1     C     0.4224     0.3601     0.685
A_1     C     0.3491     0.882     0.1278
A_0     C     0.8447     0.4033     0.3188
A_0     C     0.4303     0.8962     0.9047
A_1     C     0.8143     0.35     0.3238
A_3     C     0.598     0.526     0.478
A_2     C     0.6262     0.135     0.1041
A_3     C     0.6662     0.986     0.7776
A_1     C     0.7244     0.4938     0.6593
A_2     C     0.4477     0.2224     0.5746
A_0     C     0.632     0.3288     0.0199
A_1     C     0.5377     0.8612     0.6529
A_1     C     0.1104     0.5697     0.638
A_3     C     0.7737     0.3256     0.9157
A_1     C     0.6128     0.3021     0.1242
A_3     C     0.944     0.1817     0.3688
A_0     C     0.2995     0.9333     0.8972
A_1     C     0.8639     0.3474     0.3035
A_3     C     0.5717     0.5926     0.7543
A_1     C     0.1869     0.4037     0.8992
A_0     C     0.8967     0.5529     0.3976
A_1     C     0.823     0.4558     0.0825
A_0     C     0.4218     0.4676     0.0171
A_1     C     0.4949     0.9186     0.7973
A_0     C     0.6192     0.3263     0.3649
A_2     C     0.4252     0.7258     0.1687
A_0     C     0.205     0.0558     0.0967
A_0     C     0.081     0.0467     0.2554
A_3     C     0.1756     0.6397     0.1982
A_3     C     0.6903     0.9218     0.2983
A_2     C     0.8566     0.4645     0.4655
A_1     C     0.2508     0.0627     0.3464
A_1     C     0.4682     0.8107     0.8559
A_1     C     0.7068     0.408     0.7448
A_1     C     0.0942     0.7925     0.8328
A_0     C     0.7484     0.9212     0.6784
A_3     C     0.8781     0.3398     0.2596
A_1     C     0.1226     0.2692     0.6067
A_3     C     0.6632     0.4544     0.108
A_2     C     0.0799     0.8936     0.6234
A_3     C     0.1433     0.9729     0.8531
A_2     C     0.5806     0.3678     0.9335
A_3     C     0.4412     0.7944     0.4139
A_1     C     0.985     0.5932     0.5848
A_3     C     0.4713     0.9253     0.7466
A_1     C     0.9222     0.3375     0.4624
A_3     C     0.9375     0.0677     0.9945
A_1     C     0.4878     0.2991     0.6764
A_0     C     0.2916     0.8611     0.2509
A_3     C     0.7727     0.7965     0.7835
A_0     C     0.9325     0.8596     0.7316
A_3     C     0.1808     0.8617     0.3613
A_0     C     0.557     0.0623     0.2611
A_2     C     0.3702     0.5749     0.8718
A_1     C     0.455     0.2449     0.1563
A_1     C     0.4876     0.3988     0.4003
A_3     C     0.194     0.2708     0.5662
A_3     C     0.0571     0.9986     0.2214
A_1     C     0.4078     0.1654     0.0148
A_1     C     0.3037     0.2381     0.235
A_0     C     0.5833     0.4608     0.7479
A_2     C     0.0281     0.2642     0.1168
A_3     C     0.112     0.5533     0.0496
A_0     C     0.2998     0.5225     0.2876
A_2     C     0.3981     0.2715     0.0023
A_3     C     0.9997     0.1903     0.5533
A_2     C     0.6545     0.8659     0.6695
A_1     C     0.7548     0.8108     0.7078
A_2     C     0.0236     0.306     0.7043
A_1     C     0.5712     0.2031     0.283
A_2     C     0.3727     0.2054     0.2517
A_3     C     0.6815     0.1333     0.6891
A_0     C     0.7496     0.0737     0.7759
A_1     C     0.8503     0.0818     0.9883
A_3     C     0.3675     0.2178     0.6658
A_3     C     0.705     0.98     0.0266
A_2     C     0.9728     0.8726     0.2085
A_2     C     0.4023     0.4161     0.9804
A_3     C     0.4666     0.6747     0.1953
A_3     C     0.2921     0.2719     0.0286
A_3     C     0.7866     0.1468     0.7041
A_2     C     0.1238     0.7354     0.2076
A_0     C     0.6004     0.8942     0.8348
A_1     C     0.8329     0.9829     0.745
A_2     C     0.0017     0.2739     0.7664
A_2     C     0.8417     0.0209     0.2464
A_1     C     0.4544     0.7613     0.9811
A_1     C     0.385     0.3635     0.9114
A_3     C     0.6178     0.4124     0.059
A_2     C     0.7768     0.2389     0.4891
A_0     C     0.9533     0.9669     0.8189
A_0     C     0.0541     0.0416     0.578
A_3     C     0.677     0.2843     0.2852
A_3     C     0.0868     0.9281     0.2595
A_0     C     0.2832     0.4668     0.1025
A_0     C     0.8916     0.7579     0.6215
A_3     C     0.3534     0.1138     0.9708
A_0     C     0.1967     0.936     0.7472
A_3     C     0.9977     0.0873     0.5327
A_3     C     0.9636     0.2704     0.5214
A_2     C     0.3476     0.8     0.1763
A_2     C     0.4232     0.8077     0.101
A_1     C     0.7385     0.817     0.5706
A_2     C     0.0012     0.2202     0.4678
A_0     C     0.8095     0.035     0.207
A_0     C     0.116     0.2491     0.92
A_1     C     0.4031     0.9063     0.1469
A_0     C     0.5922     0.5621     0.4132
A_3     C     0.8045     0.0292     0.2876
A_3     C     0.5631     0.2935     0.7076
A_0     C     0.7491     0.7299     0.3524
A_1     C     0.8815     0.0421     0.4108
A_0     C     0.5369     0.3905     0.634
A_2     C     0.2275     0.3887     0.5748
A_2     C     0.5663     0.2746     0.8364
A_1     C     0.3171     0.6392     0.1658
A_1     C     0.2686     0.759     0.1826
A_1     C     0.2521     0.4123     0.983
A_2     C     0.552     0.0171     0.1827
A_2     C     0.3192     0.3614     0.5815
A_2     C     0.8539     0.591     0.7875
A_1     C     0.9553     0.2077     0.9216
A_2     C     0.6674     0.7296     0.9361
A_2     C     0.4788     0.2064     0.6578
A_0     C     0.5396     0.555     0.5087
A_2     C     0.7412     0.3435     0.3683
A_1     C     0.1038     0.348     0.6021
A_3     C     0.6628     0.0556     0.1635
A_1     C     0.2958     0.2112     0.8341
A_2     C     0.7992     0.7757     0.8291
A_3     C     0.7222     0.8547     0.9114
A_3     C     0.9673     0.5047     0.1647
A_1     C     0.0509     0.9031     0.5701
A_0     C     0.5399     0.4277     0.0025
A_0     C     0.8047     0.5325     0.5314
A_1     C     0.3587     0.3246     0.8421
A_1     C     0.9919     0.3047     0.1985
A_3     C     0.4894     0.9476     0.2479
A_2     C     0.7239     0.4522     0.2382
A_1     C     0.8787     0.3474     0.1603
A_3     C     0.1498     0.0796     0.557
A_1     C     0.2456     0.4594     0.7898
A_0     C     0.7929     0.3689     0.2873
A_1     C     0.9072     0.0593     0.5656
A_2     C     0.2064     0.6788     0.394
A_0     C     0.1994     0.8928     0.6116
A_0     C     0.909     0.4029     0.1688
A_0     C     0.0367     0.2127     0.528
A_3     C     0.7002     0.3183     0.8942
A_3     C     0.4349     0.1744     0.7604
A_0     C     0.551     0.7921     0.9477
A_3     C     0.4403     0.6538     0.0017
A_0     C     0.9802     0.1073     0.0867
A_0     C     0.1625     0.2745     0.8908
A_1     C     0.0077     0.1663     0.4006
A_3     C     0.5393     0.0524     0.9283
A_1     C     0.3617     0.1656     0.1601
A_3     C     0.7624     0.4944     0.7007
A_3     C     0.8194     0.0844     0.1519
A_3     C     0.7497     0.013     0.7563
A_2     C     0.178     0.7016     0.9395
A_3     C     0.8121     0.3678     0.6129
A_0     C     0.9054     0.9653     0.748
A_3     C     0.9128     0.6283     0.5719
A_1     C     0.3446     0.3807     0.8845
A_2     C     0.8132     0.6083     0.7303
A_1     C     0.6522     0.2627     0.8813
A_1     C     0.6613     0.256     0.8177
A_0     C     0.132     0.5969     0.5185
A_0     C     0.8044     0.6129     0.1363
A_0     C     0.8034     0.2894     0.9485
A_2     C     0.4675     0.124     0.981
A_3     C     0.6704     0.6775     0.7805
A_2     C     0.2315     0.7883     0.9252
A_0     C     0.8337     0.9873     0.7345
A_3     C     0.6143     0.4021     0.6751
A_2     C     0.4141     0.7568     0.709
A_2     C     0.838     0.3333     0.3034
A_0     C     0.8956     0.4766     0.5979
A_2     C     0.9965     0.2385     0.1461
A_2     C     0.1912     0.4684     0.6332
A_2     C     0.0399     0.5668     0.5
A_0     C     0.6053     0.8401     0.7076
A_1     C     0.2386     0.8353     0.2037
A_1     C     0.7924     0.823     0.1474
A_2     C     0.1466     0.1994     0.3121
A_2     C     0.6226     0.8716     0.3201
A_3     C     0.1354     0.3897     0.935
A_2     C     0.7023     0.9528     0.6058
A_3     C     0.2676     0.2801     0.326
A_3     C     0.056     0.0499     0.979
A_2     C     0.2992     0.4519     0.4193
A_3     C     0.6855     0.8966     0.132
A_2     C     0.2081     0.4902     0.0781
A_2     C     0.2039     0.4974     0.7645
A_2     C     0.201     0.0455     0.8101
A_0     C     0.8654     0.2507     0.5569
A_2     C     0.6038     0.1242     0.3977
A_3     C     0.3899     0.2304     0.7534
A_3     C     0.6837     0.6567     0.0461
A_2     C     0.3572     0.204     0.788
A_0     C     0.1312     0.4518     0.4211
A_1     C     0.4496     0.3741     0.9455
A_1     C     0.1336     0.8118     0.1575
A_3     C     0.1933     0.1711     0.888
A_0     C     0.3842     0.3502     0.2839
A_0     C     0.8946     0.1571     0.1713
A_3     C     0.1296     0.4677     0.2275
A_3     C     0.8774     0.5009     0.4072
A_2     C     0.3058     0.8516     0.4991
A_2     C     0.3856     0.6046     0.7132
A_1     C     0.4391     0.4759     0.1326
A_0     C     0.4425     0.6766     0.4317
A_2     C     0.9795     0.7961     0.1217
A_2     C     0.8753     0.9556     0.4279
A_3     C     0.8807     0.8999     0.0055
A_1     C     0.7857     0.4361     0.3926
A_2     C     0.2746     0.442     0.8422
A_2     C     0.423     0.3023     0.1057
A_3     C     0.7271     0.2834     0.6894
A_2     C     0.6114     0.368     0.1035
A_0     C     0.2617     0.6276     0.6748
A_0     C     0.1679     0.2086     0.5298
A_3     C     0.272     0.8554     0.4004
A_1     C     0.9784     0.5205     0.9307
A_2     C     0.0954     0.3854     0.8019
A_0     C     0.3899     0.4061     0.8564
A_3     C     0.716     0.3647     0.4434
A_2     C     0.8961     0.0177     0.8923
A_3     C     0.8629     0.4925     0.2337
A_1     C     0.7517     0.1486     0.9516
A_0     C     0.0531     0.1623     0.8912
A_0     C     0.4323     0.4616     0.0411
A_2     C     0.5313     0.0692     0.3241
A_2     C     0.8052     0.1153     0.5023
A_0     C     0.7193     0.325     0.8148
A_1     C     0.5899     0.7534     0.4377
A_0     C     0.0835     0.8644     0.8114
A_3     C     0.62     0.8457     0.0628
A_3     C     0.1086     0.8347     0.6832
A_1     C     0.2843     0.589     0.7437
A_2     C     0.8609     0.0877     0.7407
A_1     C     0.7791     0.6463     0.3898
A_1     C     0.0455     0.0388     0.8955
A_2     C     0.699     0.9732     0.6425
A_3     C     0.0219     0.977     0.0752
A_0     C     0.3033     0.8201     0.4659
A_3     C     0.4649     0.2267     0.99
A_0     C     0.7077     0.3322     0.7892
A_1     C     0.0387     0.4786     0.4869
A_3     C     0.055     0.3956     0.6776
A_2     C     0.0346     0.902     0.0874
A_3     C     0.8312     0.8289     0.9682
A_2     C     0.3216     0.0685     0.9312
A_2     C     0.076     0.5958     0.9394
A_2     C     0.3537     0.1865     0.8687
A_1     C     0.7417     0.2927     0.5196
A_3     C     0.0008     0.8434     0.6228
A_2     C     0.3208     0.8362     0.917
A_3     C     0.3     0.977     0.5793
A_1     C     0.9445     0.076     0.66
A_1     C     0.302     0.1561     0.4805
A_3     C     0.0501     0.969     0.048
A_0     C     0.5563     0.1541     0.3959
A_0     C     0.9193     0.3681     0.2991
A_3     C     0.3131     0.8957     0.1385
A_1     C     0.7769     0.4586     0.2682
A_2     C     0.7762     0.8949     0.8175
A_3     C     0.8763     0.8566     0.595
A_2     C     0.7564     0.649     0.5087
A_2     C     0.0709     0.4662     0.3
A_3     C     0.1981     0.7468     0.5335
A_0     C     0.3268     0.8913     0.138
A_0     C     0.6799     0.5866     0.3364
A_2     C     0.8012     0.2489     0.7224
A_3     C     0.4286     0.2932     0.3022
A_2     C     0.58     0.1562     0.9294
A_0     C     0.2326     0.7099     0.9289
A_0     C     0.0956     0.5662     0.8291
A_0     C     0.0958     0.2166     0.7308
A_0     C     0.0931     0.0189     0.7136
A_0     C     0.2792     0.7035     0.4974
A_2     C     0.8943     0.7709     0.5353
A_0     C     0.6316     0.2914     0.9793
A_2     C     0.9077     0.6105     0.8094
A_1     C     0.5309     0.6389     0.1811
A_3     C     0.506     0.873     0.1678
A_2     C     0.4194     0.5367     0.6251
A_2     C     0.6695     0.1102     0.2384
A_1     C     0.254     0.056     0.7198
A_0     C     0.2452     0.1942     0.1155
A_2     C     0.9966     0.6787     0.3723
A_0     C     0.1546     0.6191     0.1858
A_0     C     0.1374     0.2031     0.2735
A_0     C     0.4083     0.9051     0.0545
A_3     C     0.7034     0.4295     0.4889
A_2     C     0.8924     0.69     0.7092
A_0     C     0.0839     0.8605     0.0455
A_3     C     0.6667     0.1416     0.4339
A_0     C     0.2289     0.0578     0.0893
A_2     C     0.0061     0.2839     0.8362
A_0     C     0.0115     0.951     0.2172
A_0     C     0.777     0.441     0.9929
A_3     C     0.1348     0.0624     0.3316
A_0     C     0.7972     0.7167     0.222
A_3     C     0.1474     0.5969     0.4749
A_2     C     0.6855     0.7649     0.9536
A_0     C     0.8763     0.8267     0.3138
A_2     C     0.9692     0.4203     0.0881
A_0     C     0.3201     0.9175     0.8209
A_2     C     0.0727     0.8955     0.2664
A_1     C     0.0207     0.8135     0.9277
A_1     C     0.8285     0.7951     0.785
A_0     C     0.024     0.1583     0.3093
A_0     C     0.396     0.2817     0.5731
A_3     C     0.5545     0.373     0.8299
A_2     C     0.7706     0.1006     0.5116
A_3     C     0.1458     0.4654     0.8016
A_3     C     0.1206     0.9955     0.3981
A_0     C     0.3603     0.8578     0.0186
A_2     C     0.2071     0.0551     0.9725
A_1     C     0.2915     0.5011     0.2095
A_2     C     0.764     0.7899     0.3936
A_2     C     0.1238     0.8017     0.7236
A_3     C     0.4832     0.9625     0.9294
A_3     C     0.2131     0.906     0.179
A_3     C     0.2205     0.0927     0.9374
A_3     C     0.0026     0.1299     0.7687
A_0     C     0.8855     0.8488     0.0651
A_0     C     0.6765     0.1412     0.9586
A_1     C     0.086     0.7521     0.9795
A_3     C     0.3533     0.337     0.8481
A_2     C     0.1066     0.6204     0.4076
A_2     C     0.4819     0.111     0.3328
A_1     C     0.5765     0.6531     0.0933
A_2     C     0.0196     0.0874     0.9858
A_2     C     0.3391     0.2422     0.901
A_1     C     0.1715     0.8347     0.7063
A_0     C     0.6384     0.4726     0.5705
A_3     C     0.6583     0.4169     0.4204
A_1     C     0.772     0.8567     0.5055
A_1     C     0.0781     0.5213     0.8569
A_0     C     0.7654     0.6944     0.8334
A_0     C     0.832     0.339     0.7406
A_1     C     0.895     0.4987     0.2118
A_0     C     0.2793     0.3535     0.5707
A_1     C     0.3161     0.4812     0.9897
A_0     C     0.9098     0.1201     0.4613
A_1     C     0.8205     0.3827     0.8212
A_2     C     0.5141     0.6304     0.3332
A_1     C     0.9125     0.5771     0.1523
A_1     C     0.8918     0.4222     0.5398
A_3     C     0.3641     0.8829     0.631
A_1     C     0.8332     0.9273     0.8364
A_0     C     0.1986     0.2807     0.8717
A_2     C     0.5321     0.1881     0.903
A_3     C     0.4826     0.7717     0.812
A_2     C     0.7554     0.3804     0.456
A_0     C     0.427     0.8745     0.3304
A_0     C     0.8546     0.5909     0.0806
A_1     C     0.1316     0.7637     0.8585
A_0     C     0.9144     0.7497     0.2663
A_2     C     0.6207     0.8615     0.432
A_2     C     0.6903     0.3231     0.7185
A_1     C     0.8236     0.9563     0.0049
A_3     C     0.9264     0.9644     0.8096
A_2     C     0.079     0.2275     0.2517
A_2     C     0.8216     0.9472     0.1078
A_3     C     0.4032     0.9546     0.7879
A_3     C     0.8248     0.3514     0.8815
A_2     C     0.9425     0.9113     0.6413
A_3     C     0.2945     0.0901     0.2271
A_2     C     0.3372     0.4288     0.6067
A_1     C     0.4403     0.0196     0.0056
A_3     C     0.0181     0.0916     0.0014
A_0     C     0.1371     0.2257     0.8809
A_1     C     0.971     0.1851     0.8753
A_3     C     0.2341     0.6781     0.379
A_2     C     0.0065     0.9291     0.7843
A_3     C     0.2822     0.3164     0.9211
A_2     C     0.3189     0.102     0.9775
A_1     C     0.4322     0.9303     0.8035
A_3     C     0.0596     0.5274     0.2693
A_2     C     0.3792     0.754     0.0081
A_0     C     0.8835     0.3279     0.9708
A_2     C     0.3905     0.716     0.2755
A_2     C     0.9499     0.5554     0.8178
A_2     C     0.5751     0.9806     0.2493
A_2     C     0.6674     0.6123     0.6407
A_0     C     0.0513     0.9868     0.792
A_2     C     0.0128     0.9277     0.9108
A_1     C     0.7265     0.8937     0.6155
A_0     C     0.1448     0.465     0.7722
A_0     C     0.7209     0.19     0.9739
A_2     C     0.8936     0.2201     0.5762
A_2     C     0.3333     0.5828     0.6676
A_1     C     0.8373     0.117     0.8034
A_1     C     0.5498     0.6478     0.7065
A_3     C     0.2761     0.6022     0.2343
A_0     C     0.1037     0.0732     0.3935
A_1     C     0.6927     0.6624     0.6583
A_0     C     0.0727     0.6835     0.1692
A_2     C     0.4026     0.8913     0.736
A_0     C     0.6107     0.7072     0.7788
A_0     C     0.8111     0.0055     0.9206
A_0     C     0.9944     0.3846     0.1459
A_2     C     0.4694     0.7598     0.9641
A_0     C     0.8488     0.9421     0.201
A_2     C     0.8211     0.1262     0.6284
A_2     C     0.8777     0.1296     0.9178
A_0     C     0.8462     0.0426     0.5363
A_0     C     0.2238     0.9787     0.802
A_1     C     0.8052     0.7551     0.8066
A_1     C     0.8911     0.5135     0.4536
A_3     C     0.7563     0.5228     0.7628
A_1     C     0.1731     0.8919     0.1905
A_0     C     0.711     0.6884     0.9682
A_3     C     0.1971     0.7084     0.08
A_2     C     0.6338     0.8017     0.1281
A_2     C     0.7141     0.4805     0.3282
A_3     C     0.8809     0.3419     0.465
A_0     C     0.5526     0.7552     0.3506
A_0     C     0.2714     0.6444     0.5522
A_3     C     0.0002     0.2538     0.3666
A_0     C     0.1694     0.0202     0.3591
A_0     C     0.6511     0.3766     0.2417
A_3     C     0.6716     0.862     0.9758
A_2     C     0.1443     0.4509     0.9983
A_3     C     0.9434     0.63     0.196
A_1     C     0.4837     0.5415     0.56
A_2     C     0.4139     0.0386     0.2201
A_2     C     0.5059     0.2837     0.9385
A_0     C     0.275     0.0223     0.2634
A_3     C     0.4713     0.3092     0.0414
A_1     C     0.5838     0.5262     0.4901
A_3     C     0.8345     0.0273     0.5295
A_3     C     0.901     0.2732     0.8089
A_3     C     0.6329     0.1992     0.3959
A_3     C     0.3908     0.4051     0.7345
A_3     C     0.7279     0.2742     0.6945
A_2     C     0.0539     0.8179     0.231
A_2     C     0.2179     0.8712     0.2026
A_0     C     0.9916     0.4516     0.5796
A_3     C     0.9995     0.3573     0.7021
A_3     C     0.793     0.6918     0.7156
A_1     C     0.7595     0.6176     0.183
A_0     C     0.8901     0.0515     0.157
A_0     C     0.9409     0.054     0.1173
A_1     C     0.5568     0.4778     0.6918
A_1     C     0.4844     0.1754     0.1631
A_0     C     0.9563     0.5158     0.8164
A_3     C     0.7538     0.2287     0.1838
A_2     C     0.9387     0.3456     0.7679
A_1     C     0.9142     0.7798     0.6751
A_0     C     0.7551     0.1228     0.0668
A_3     C     0.1096     0.3277     0.9028
A_3     C     0.3165     0.556     0.8546
A_1     C     0.2938     0.1493     0.822
A_1     C     0.7301     0.6108     0.1154
A_3     C     0.8968     0.6198     0.851
A_3     C     0.2744     0.3075     0.6312
A_1     C     0.0603     0.051     0.6545
A_3     C     0.8435     0.134     0.0868
A_2     C     0.8293     0.7352     0.5367
A_3     C     0.2222     0.6504     0.5883
A_3     C     0.1952     0.1864     0.9897
A_3     C     0.1868     0.085     0.1368
A_3     C     0.2031     0.6624     0.7212
A_3     C     0.3405     0.5947     0.642
A_2     C     0.3373     0.6677     0.6865
A_3     C     0.0146     0.2092     0.2375
A_1     C     0.0433     0.448     0.125
A_0     C     0.599     0.6774     0.1601
A_2     C     0.6157     0.7086     0.5245
A_2     C     0.99     1.0     0.6449
A_2     C     0.9668     0.7422     0.285
A_0     C     0.8777     0.8497     0.3459
A_1     C     0.6847     0.0676     0.8777
A_0     C     0.3464     0.0465     0.3261
A_0     C     0.0607     0.0437     0.5164
A_1     C     0.8807     0.1428     0.5746
A_3     C     0.762     0.482     0.2388
A_0     C     0.7142     0.4691     0.5452
A_2     C     0.9066     0.3241     0.5608
A_1     C     0.6888     0.8232     0.0954
A_2     C     0.5311     0.7031     0.2472
A_2     C     0.5818     0.732     0.5132
A_3     C     0.8607     0.539     0.5993
A_2     C     0.6331     0.487     0.5001
A_3     C     0.284     0.1186     0.1402
A_0     C     0.0917     0.7105     0.1275
A_1     C     0.6893     0.0146     0.9775
A_0     C     0.1391     0.7005     0.0954
A_0     C     0.8457     0.5207     0.656
A_0     C     0.7546     0.9677     0.0205
A_3     C     0.4167     0.3062     0.7911
A_1     C     0.9625     0.3644     0.8894
A_3     C     0.2777     0.7988     0.1514
A_1     C     0.9377     0.9401     0.2954
A_2     C     0.0085     0.2183     0.5151
A_2     C     0.9912     0.6205     0.3731
A_2     C     0.1259     0.3989     0.1048
A_2     C     0.5655     0.5479     0.7818
A_3     C     0.4921     0.0711     0.2329
A_3     C     0.1429     0.7664     0.4202
A_3     C     0.658     0.0961     0.1769
A_1     C     0.3801     0.3891     0.5672
A_1     C     0.7645     0.1904     0.909
A_2     C     0.5412     0.5117     0.7654
A_2     C     0.154     0.2462     0.8731
A_0     C     0.8434     0.8629     0.0101
A_1     C     0.9914     0.8064     0.6514
A_3     C     0.8498     0.825     0.6352
A_2     C     0.8097     0.2716     0.0048
A_2     C     0.6937     0.0275     0.9466
A_3     C     0.2259     0.3361     0.1628
A_0     C     0.4343     0.8973     0.6285
A_0     C     0.1496     0.7157     0.5259
A_2     C     0.3481     0.2627     0.0878
A_2     C     0.506     0.5375     0.0353
A_3     C     0.8758     0.8862     0.685
A_1     C     0.4278     0.2371     0.0192
A_3     C     0.0162     0.7394     0.1803
A_1     C     0.9866     0.9796     0.4235
A_2     C     0.0202     0.4331     0.2292
A_3     C     0.3597     0.6296     0.2966
A_2     C     0.8625     0.8268     0.0692
A_1     C     0.043     0.7749     0.5557
A_0     C     0.7556     0.4138     0.585
A_0     C     0.5541     0.6104     0.1544
A_1     C     0.4192     0.6543     0.9861
A_0     C     0.6723     0.5986     0.3458
A_2     C     0.5232     0.3913     0.5755
A_3     C     0.32     0.8377     0.7871
A_1     C     0.5438     0.5743     0.4104
A_1     C     0.3519     0.7966     0.7846
A_2     C     0.6097     0.5272     0.706
A_3     C     0.0914     0.0938     0.7261
A_0     C     0.2135     0.2473     0.2484
A_3     C     0.9945     0.1785     0.5471
A_2     C     0.0802     0.9364     0.493
A_3     C     0.371     0.5856     0.9785
A_3     C     0.9594     0.5345     0.5883
A_0     C     0.1142     0.4657     0.7348
A_1     C     0.9217     0.0589     0.2265
A_2     C     0.5307     0.5407     0.2037
A_0     C     0.7086     0.5716     0.1588
A_0     C     0.5902     0.4671     0.7043
A_0     C     0.2163     0.3588     0.0497
A_1     C     0.2341     0.8942     0.8323
A_3     C     0.015     0.1031     0.8152
A_3     C     0.6056     0.2462     0.5829
A_3     C     0.0645     0.9994     0.0125
A_3     C     0.8842     0.1509     0.5988
A_2     C     0.6728     0.1364     0.3203
A_2     C     0.4545     0.4212     0.8246
A_3     C     0.8072     0.3768     0.9288
A_0     C     0.4734     0.1617     0.091
A_0     C     0.4386     0.388     0.8507
A_2     C     0.7327     0.1449     0.9398
A_1     C     0.8914     0.997     0.549
A_3     C     0.6983     0.0062     0.9478
A_1     C     0.3064     0.3015     0.697
A_2     C     0.061     0.4044     0.121
A_1     C     0.9869     0.536     0.9803
A_1     C     0.4693     0.6695     0.7165
A_0     C     0.2284     0.3515     0.9371
A_0     C     0.6313     0.0091     0.0783
A_2     C     0.8431     0.8722     0.3925
A_2     C     0.1661     0.1025     0.9479
A_2     C     0.5795     0.3758     0.5536
A_1     C     0.9113     0.0876     0.0094
A_0     C     0.8287     0.0477     0.1924
A_1     C     0.7509     0.8234     0.1963
A_1     C     0.3589     0.4215     0.5414
A_3     C     0.7961     0.356     0.8605
A_3     C     0.1498     0.2518     0.4394
A_2     C     0.8183     0.6783     0.7113
A_0     C     0.069     0.2303     0.7337
A_2     C     0.5498     0.1271     0.9205
A_2     C     0.7745     0.0985     0.0722
A_3     C     0.3318     0.0258     0.3594
A_1     C     0.4967     0.9052     0.7396
A_2     C     0.2477     0.3552     0.4478
A_2     C     0.4841     0.0802     0.8068
A_0     C     0.6845     0.13     0.6777
A_1     C     0.0554     0.6917     0.5697
A_3     C     0.7444     0.9947     0.8851
A_1     C     0.9729     0.5879     0.3757
A_2     C     0.7591     0.751     0.5038
A_2     C     0.9886     0.3435     0.4312
A_2     C     0.7515     0.63     0.4808
A_0     C     0.8188     0.2065     0.2576
A_2     C     0.5251     0.0876     0.576
A_1     C     0.7483     0.7902     0.1825
A_1     C     0.9161     0.7215     0.8596
A_1     C     0.9735     0.3469     0.953
A_0     C     0.8604     0.4586     0.6882
A_0     C     0.0109     0.1235     0.6908
A_0     C     0.5207     0.1293     0.6612
A_3     C     0.9159     0.6272     0.5927
A_1     C     0.9791     0.2669     0.9252
A_0     C     0.4844     0.0761     0.1394
A_2     C     0.8537     0.0875     0.9779
A_3     C     0.8194     0.2457     0.3297
A_3     C     0.7831     0.1288     0.0664
A_0     C     0.7593     0.4802     0.3234
A_0     C     0.315     0.7903     0.2372
A_1     C     0.3388     0.2488     0.4823
A_2     C     0.6791     0.0208     0.4536
A_3     C     0.5755     0.805     0.803
A_0     C     0.9648     0.3189     0.222
A_0     C     0.1052     0.7977     0.6273
A_2     C     0.749     0.434     0.7
A_2     C     0.3956     0.9299     0.5801
A_3     C     0.7647     0.998     0.9651
A_1     C     0.1579     0.1523     0.2698
A_2     C     0.7548     0.674     0.0683
A_1     C     0.0473     0.4177     0.1623
A_3     C     0.7937     0.1038     0.0453
A_2     C     0.1432     0.0429     0.3094
A_3     C     0.515     0.7514     0.7274
A_1     C     0.2862     0.7285     0.6763
A_3     C     0.8734     0.1909     0.494
A_0     C     0.5692     0.5239     0.92
A_2     C     0.451     0.4095     0.2387
A_2     C     0.0683     0.2674     0.2063
A_1     C     0.5536     0.1607     0.4126
A_2     C     0.0742     0.7746     0.0809
A_1     C     0.7855     0.6499     0.1362
A_0     C     0.891     0.9334     0.9471
A_1     C     0.9381     0.3285     0.1055
A_3     C     0.987     0.1016     0.6065
A_1     C     0.0626     0.6918     0.0407
A_2     C     0.239     0.1924     0.8222
A_2     C     0.9441     0.0256     0.4029
A_0     C     0.9352     0.5777     0.8527
A_2     C     0.2572     0.3511     0.1911
A_2     C     0.8945     0.14     0.9192
A_1     C     0.3848     0.172     0.9981
A_3     C     0.6658     0.3115     0.7599
A_3     C     0.4982     0.5994     0.473
A_0     C     0.0859     0.917     0.114
A_0     C     0.3206     0.0689     0.0231
A_2     C     0.3042     0.987     0.8332
A_1     C     0.6193     0.9234     0.322
A_3     C     0.067     0.1376     0.1256
A_1     C     0.1147     0.1032     0.2216
A_2     C     0.6549     0.803     0.1447
A_3     C     0.2164     0.7141     0.0631
A_1     C     0.8424     0.6988     0.1524
A_3     C     0.2828     0.9744     0.7069
A_2     C     0.7026     0.0915     0.0234
A_0     C     0.6613     0.9812     0.894
A_1     C     0.5733     0.8783     0.5618
A_2     C     0.5934     0.8687     0.9503
A_1     C     0.3629     0.1905     0.553
A_0     C     0.8828     0.2532     0.839
A_3     C     0.4767     0.8006     0.7195
A_2     C     0.464     0.9893     0.9271
A_2     C     0.2584     0.8773     0.4535
A_0     C     0.2923     0.8536     0.3733
A_0     C     0.1332     0.2452     0.1224
A_1     C     0.5751     0.2329     0.5543
A_1     C     0.8977     0.1796     0.9658
A_0     C     0.2382     0.9403     0.9653
A_3     C     0.984     0.5926     0.3348
A_3     C     0.6471     0.6392     0.6614
A_1     C     0.0307     0.1004     0.0956
A_1     C     0.2293     0.2652     0.335
A_2     C     0.0143     0.7417     0.3034
A_2     C     0.0887     0.525     0.3357
A_0     C     0.9039     0.0373     0.4233
A_3     C     0.5514     0.4544     0.7655
A_1     C     0.414     0.2534     0.4835
A_1     C     0.7285     0.9531     0.1457
A_2     C     0.8144     0.7852     0.9937
A_2     C     0.1476     0.1658     0.3299
A_1     C     0.436     0.6703     0.1289
A_3     C     0.5572     0.6853     0.0317
A_0     C     0.4602     0.9413     0.1534
A_1     C     0.1374     0.835     0.8164
A_2     C     0.6152     0.9874     0.2166
A_0     C     0.6807     0.9435     0.5113
A_2     C     0.634     0.4749     0.05
A_1     C     0.4224     0.7445     0.4141
A_2     C     0.8709     0.0729     0.6502
A_1     C     0.1911     0.3751     0.9
A_3     C     0.171     0.6341     0.1339
A_2     C     0.5587     0.8784     0.3693
A_2     C     0.9745     0.3263     0.6802
A_1     C     0.7342     0.1824     0.6699
A_3     C     0.7286     0.3732     0.706
A_3     C     0.2201     0.8342     0.3064
A_0     C     0.5409     0.1071     0.3018
A_2     C     0.0694     0.1243     0.8071
A_3     C     0.6872     0.4199     0.0267
A_1     C     0.0422     0.1527     0.674
A_0     C     0.2285     0.4909     0.1007
A_0     C     0.1493     0.9064     0.1605
A_1     C     0.2155     0.2128     0.1405
A_3     C     0.5393     0.8494     0.9181
A_3     C     0.4204     0.2832     0.3013
A_3     C     0.3527     0.2795     0.5712
A_1     C     0.0875     0.7725     0.7263
A_0     C     0.3023     0.8774     0.4783
A_3     C     0.7462     0.8916     0.9315
A_3     C     0.8986     0.8825     0.5579
A_1     C     0.2006     0.6332     0.7823
A_1     C     0.3056     0.0273     0.7887
A_3     C     0.6585     0.7089     0.7153
A_0     C     0.6141     0.114     0.0305
A_0     C     0.9528     0.9789     0.9232
A_0     C     0.5433     0.0195     0.4228
A_0     C     0.3035     0.2422     0.7308
A_1     C     0.3195     0.192     0.7953
A_3     C     0.7739     0.3574     0.4237
A_1     C     0.2237     0.8676     0.311
A_0     C     0.8457     0.5406     0.8903
A_3     C     0.9675     0.0977     0.8982
A_3     C     0.4724     0.9314     0.3556
A_0     C     0.1523     0.5709     0.6144
A_1     C     0.1641     0.8015     0.1168
A_3     C     0.4666     0.5155     0.0849
A_1     C     0.7795     0.3692     0.2847
A_2     C     0.1599     0.1001     0.0413
A_0     C     0.1461     0.4192     0.3726
A_0     C     0.4891     0.7983     0.4506
A_1     C     0.1536     0.4415     0.4572
A_0     C     0.8841     0.9762     0.7692
A_2     C     0.223     0.9953     0.1561
A_1     C     0.5813     0.1026     0.8527
A_0     C     0.8246     0.1403     0.696
A_3     C     0.2836     0.008     0.7437
A_3     C     0.1752     0.1158     0.9189
A_2     C     0.8213     0.3592     0.7304
A_0     C     0.5497     0.6434     0.2671
A_0     C     0.1302     0.5105     0.725
A_0     C     0.6058     0.3417     0.1533
A_2     C     0.1437     0.8078     0.3292
A_3     C     0.1865     0.3613     0.714
A_3     C     0.5373     0.7823     0.5186
A_3     C     0.0464     0.632     0.3685
A_1     C     0.4281     0.5141     0.4564
A_3     C     0.9182     0.9027     0.4296
A_2     C     0.2249     0.6189     0.1938
A_3     C     0.3335     0.2865     0.7324
A_0     C     0.0731     0.9938     0.2469
A_2     C     0.7715     0.5047     0.2915
A_3     C     0.8048     0.7851     0.5297
A_2     C     0.774     0.0194     0.1348
A_1     C     0.6316     0.0628     0.66
A_3     C     0.5491     0.1649     0.1892
A_1     C     0.4968     0.1555     0.5067
A_0     C     0.4625     0.879     0.2291
A_1     C     0.5582     0.1867     0.8402
A_1     C     0.8968     0.7072     0.7471
A_0     C     0.857     0.3609     0.9469
A_1     C     0.0426     0.8565     0.4904
A_3     C     0.3964     0.6762     0.6756
A_1     C     0.3943     0.7519     0.1344
A_3     C     0.3876     0.2356     0.1489
A_0     C     0.4486     0.3987     0.3788
A_3     C     0.6163     0.157     0.1241
A_3     C     0.1445     0.5445     0.9547
A_3     C     0.326     0.8982     0.3726
A_1     C     0.4708     0.4357     0.9525
A_0     C     0.9747     0.9186     0.0974
A_0     C     0.377     0.5771     0.2724
A_0     C     0.1698     0.5266     0.626
A_3     C     0.9051     0.1641     0.0359
A_1     C     0.89     0.2906     0.615
A_3     C     0.1127     0.1644     0.8268
A_0     C     0.087     0.0851     0.5621
A_0     C     0.1341     0.3854     0.2594
A_1     C     0.1101     0.6553     0.0192
A_1     C     0.6883     0.8359     0.2039
A_3     C     0.6232     0.3814     0.4634
A_0     C     0.7189     0.9758     0.51
A_0     C     0.3266     0.1162     0.4381
A_2     C     0.2153     0.2181     0.7331
A_2     C     0.3616     0.8216     0.2829
A_0     C     0.9726     0.5971     0.0206
A_3     C     0.5781     0.8145     0.0244
A_0     C     0.7258     0.0618     0.8414
A_3     C     0.681     0.4881     0.2421
A_3     C     0.348     0.2469     0.5501
A_2     C     0.5443     0.8703     0.753
A_1     C     0.466     0.9592     0.6939
A_0     C     0.5853     0.2821     0.3035
A_1     C     0.0889     0.4972     0.013
A_0     C     0.3805     0.3654     0.9584
A_0     C     0.7774     0.4804     0.5322
A_1     C     0.0903     0.7911     0.1072
A_0     C     0.7692     0.6974     0.7317
A_3     C     0.4561     0.7775     0.9479
A_3     C     0.3673     0.5807     0.1187
A_2     C     0.3995     0.7098     0.2062
A_1     C     0.2041     0.4974     0.7109
A_0     C     0.2386     0.9665     0.4519
A_2     C     0.289     0.239     0.8505
A_1     C     0.1314     0.9945     0.4928
A_2     C     0.3234     0.2422     0.5747
A_3     C     0.131     0.1201     0.5996
A_0     C     0.8311     0.5973     0.0107
A_3     C     0.2653     0.8998     0.7845
A_3     C     0.3304     0.7134     0.8196
A_2     C     0.9649     0.661     0.1147
A_1     C     0.1652     0.8898     0.0019
A_0     C     0.4291     0.4949     0.2336
A_2     C     0.6216     0.2177     0.6613
A_0     C     0.536     0.6802     0.8828
A_1     C     0.1166     0.4145     0.9682
A_1     C     0.6106     0.0531     0.0825
A_0     C     0.4827     0.9055     0.839
A_3     C     0.8506     0.5542     0.4042
A_2     C     0.29     0.8188     0.6181
A_0     C     0.8718     0.6182     0.141
A_3     C     0.3395     0.8045     0.1193
A_0     C     0.5382     0.4837     0.9887
A_1     C     0.0949     0.2693     0.7419
A_2     C     0.6083     0.4615     0.6925
A_1     C     0.6444     0.2585     0.772
A_1     C     0.8007     0.458     0.1884
A_0     C     0.8892     0.0992     0.5917
A_3     C     0.0848     0.4065     0.0374
A_2     C     0.6243     0.3746     0.5368
A_3     C     0.9579     0.0531     0.0233
A_1     C     0.8884     0.3538     0.3096
A_0     C     0.9111     0.5718     0.7977
A_3     C     0.0874     0.4956     0.2829
A_3     C     0.8228     0.4547     0.5687
A_2     C     0.6571     0.353     0.5526
A_3     C     0.9183     0.8388     0.488
A_3     C     0.6593     0.4896     0.6473
A_2     C     0.3197     0.7281     0.6439
A_0     C     0.8295     0.7836     0.7256
A_1     C     0.7495     0.7855     0.5231
A_3     C     0.7499     0.151     0.9242
A_0     C     0.0336     0.3232     0.7882
A_2     C     0.5858     0.9542     0.4403
A_2     C     0.1121     0.2833     0.1201
A_0     C     0.7493     0.3784     0.5532
A_3     C     0.7724     0.8449     0.7636
A_2     C     0.8639     0.0726     0.3166
A_2     C     0.3359     0.699     0.3085
A_0     C     0.6638     0.4461     0.6131
A_1     C     0.1891     0.0139     0.5669
A_0     C     0.5138     0.1078     0.4249
A_0     C     0.4921     0.4116     0.5387
A_2     C     0.1817     0.661     0.021
A_2     C     0.9512     0.7565     0.6188
A_0     C     0.5577     0.9127     0.6177
A_3     C     0.9298     0.5715     0.018
A_2     C     0.1431     0.0845     0.9043
A_1     C     0.668     0.6158     0.3698
A_2     C     0.0997     0.5743     0.4004
A_2     C     0.4251     0.4506     0.8495
A_2     C     0.5936     0.3608     0.9001
A_0     C     0.1041     0.5272     0.5249
A_2     C     0.7245     0.3008     0.0927
A_0     C     0.0267     0.9569     0.1843
A_1     C     0.8818     0.2598     0.6471
A_1     C     0.1264     0.5427     0.929
A_1     C     0.0264     0.1806     0.4076
A_0     C     0.0049     0.7651     0.5392
A_0     C     0.7151     0.6678     0.5634
A_0     C     0.2337     0.2047     0.9911
A_3     C     0.9988     0.4408     0.4652
A_1     C     0.3802     0.9587     0.9914
A_0     C     0.0548     0.3319     0.4902
A_2     C     0.6687     0.7978     0.775
A_1     C     0.1318     0.1819     0.9859
A_3     C     0.8171     0.4057     0.8921
A_0     C     0.5656     0.0921     0.1667
A_3     C     0.6547     0.5495     0.2483
A_3     C     0.637     0.4177     0.0805
A_2     C     0.2156     0.4653     0.653
A_3     C     0.3649     0.8488     0.531
A_3     C     0.1779     0.8424     0.7212
A_0     C     0.3198     0.9465     0.9765
A_0     C     0.7676     0.6655     0.617
A_3     C     0.992     0.6841     0.3565
A_0     C     0.8276     0.6306     0.0911
A_1     C     0.6185     0.7595     0.64
A_3     C     0.5431     0.7055     0.1538
A_0     C     0.6775     0.1255     0.814
A_0     C     0.3786     0.8288     0.7324
A_1     C     0.1454     0.7348     0.9244
A_1     C     0.7769     0.8194     0.2521
A_0     C     0.2142     0.8943     0.8932
A_0     C     0.7702     0.7282     0.0534
A_3     C     0.5923     0.1364     0.1219
A_3     C     0.1618     0.1088     0.6776
A_3     C     0.8809     0.0222     0.436
A_1     C     0.7195     0.2503     0.1807
A_3     C     0.0251     0.8819     0.4929
A_0     C     0.7233     0.4999     0.4731
A_0     C     0.7711     0.6184     0.0312
A_3     C     0.8451     0.9178     0.5132
A_3     C     0.5155     0.7943     0.4751
A_2     C     0.6424     0.4794     0.9822
A_3     C     0.3848     0.3491     0.1641
A_0     C     0.1324     0.7282     0.8458
A_1     C     0.0962     0.2524     0.2495
A_0     C     0.0593     0.7059     0.5434
A_0     C     0.3953     0.3679     0.7016
A_3     C     0.0048     0.7028     0.1561
A_2     C     0.6415     0.4915     0.0304
A_3     C     0.0839     0.3011     0.1596
A_2     C     0.4794     0.1003     0.8358
A_2     C     0.4879     0.7438     0.7369
A_1     C     0.9135     0.0594     0.9377
A_2     C     0.6552     0.4133     0.0396
A_2     C     0.3497     0.6981     0.7069
A_0     C     0.6467     0.1701     0.0961
A_1     C     0.0939     0.5954     0.2274
A_0     C     0.7194     0.031     0.3182
A_1     C     0.9369     0.9539     0.1473
A_0     C     0.4938     0.486     0.4421
A_2     C     0.905     0.859     0.3716
A_1     C     0.1958     0.1154     0.8161
A_3     C     0.5561     0.9141     0.5221
A_3     C     0.8684     0.8831     0.2639
A_1     C     0.148     0.432     0.7559
A_3     C     0.9373     0.4573     0.9097
A_1     C     0.4665     0.5408     0.1818
A_1     C     0.5017     0.8972     0.9485
A_3     C     0.8858     0.1242     0.1825
A_2     C     0.4513     0.9903     0.4903
A_1     C     0.4986     0.0818     0.1402
A_3     C     0.2981     0.7606     0.7675
A_2     C     0.1505     0.1063     0.7646
A_0     C     0.1168     0.7628     0.969
A_0     C     0.1515     0.4617     0.5266
A_3     C     0.23     0.1552     0.3955
A_3     C     0.0962     0.2165     0.1023
A_3     C     0.288     0.7111     0.6142
A_3     C     0.1055     0.9012     0.7847
A_0     C     0.9603     0.2662     0.9909
A_3     C     0.4046     0.3831     0.3352
A_2     C     0.4419     0.3716     0.5134
A_0     C     0.18     0.4315     0.2771
A_2     C     0.4086     0.5873     0.6588
A_3     C     0.305     0.0725     0.0595
A_2     C     0.0065     0.46     0.5538
A_1     C     0.4996     0.1594     0.1306
A_2     C     0.3858     0.5753     0.477
A_3     C     0.9276     0.0507     0.3423
A_2     C     0.4618     0.2662     0.4053
A_3     C     0.8415     0.9648     0.1403
A_3     C     0.3619     0.3453     0.4936
A_2     C     0.9693     0.5473     0.1101
A_2     C     0.6128     0.9298     0.6992
A_1     C     0.5277     0.4565     0.7198
A_0     C     0.0204     0.4577     0.736
A_3     C     0.7599     0.9886     0.9716
A_3     C     0.0472     0.3524     0.2891
A_1     C     0.4763     0.6285     0.4124
A_3     C     0.733     0.7192     0.8845
A_2     C     0.7458     0.5355     0.1353
A_0     C     0.0206     0.6954     0.6579
A_2     C     0.6105     0.4026     0.8145
A_0     C     0.1599     0.5751     0.8248
A_0     C     0.1966     0.286     0.6519
A_1     C     0.5729     0.8717     0.2797
A_2     C     0.0678     0.4148     0.2108
A_2     C     0.0064     0.5119     0.0348
A_1     C     0.027     0.6046     0.5114
A_3     C     0.8117     0.4273     0.1001
A_1     C     0.7592     0.0086     0.4856
A_3     C     0.6358     0.5995     0.1169
A_0     C     0.0129     0.5668     0.2103
A_3     C     0.5008     0.3931     0.7772
A_1     C     0.6599     0.5405     0.5622
A_2     C     0.7097     0.8683     0.2526
A_0     C     0.5335     0.3756     0.2377
A_1     C     0.2308     0.4079     0.6142
A_2     C     0.8564     0.3551     0.5726
A_3     C     0.3133     0.0711     0.6283
A_1     C     0.4386     0.7531     0.2487
A_2     C     0.9681     0.79     0.9763
A_3     C     0.7255     0.6424     0.7877
A_1     C     0.0973     0.7083     0.7865
A_3     C     0.6628     0.2444     0.8193
A_3     C     0.0301     0.9394     0.2601
A_0     C     0.7077     0.3517     0.5634
A_1     C     0.3546     0.5704     0.7112
A_3     C     0.6827     0.9883     0.5125
A_1     C     0.7862     0.0523     0.1064
A_0     C     0.3754     0.3439     0.2972
A_3     C     0.329     0.6742     0.0279
A_2     C     0.7306     0.7707     0.442
A_0     C     0.8736     0.0148     0.6456
A_2     C     0.4959     0.9245     0.2492
A_1     C     0.3736     0.0552     0.9618
A_1     C     0.1413     0.81     0.7375
A_2     C     0.0057     0.8291     0.6949
A_1     C     0.2785     0.3701     0.2837
A_0     C     0.2727     0.8777     0.2346
A_1     C     0.7034     0.1226     0.9765
A_0     C     0.2639     0.26     0.9606
A_0     C     0.7598     0.8593     0.2732
A_3     C     0.276     0.3797     0.1926
A_1     C     0.7177     0.0251     0.831
A_3     C     0.6826     0.4979     0.4716
A_0     C     0.1097     0.2152     0.5316
A_0     C     0.632     0.5457     0.3419
A_1     C     0.3581     0.2404     0.8505
A_0     C     0.5583     0.1223     0.9272
A_3     C     0.5572     0.8035     0.0585
A_1     C     0.2351     0.3196     0.7834
A_1     C     0.2559     0.2174     0.2027
A_3     C     0.7322     0.8923     0.7529
A_1     C     0.1595     0.8717     0.9216
A_3     C     0.049     0.8458     0.9556
A_1     C     0.3306     0.9798     0.2673
A_0     C     0.4172     0.1123     0.8342
A_1     C     0.1459     0.921     0.6487
A_0     C     0.6223     0.6963     0.7726
A_2     C     0.626     0.5949     0.1973
A_2     C     0.8681     0.9098     0.6906
A_2     C     0.9419     0.2836     0.3146
A_1     C     0.1577     0.4612     0.5599
A_2     C     0.1636     0.286     0.8723
A_1     C     0.3465     0.55     0.9415
A_2     C     0.4419     0.0749     0.7151
A_1     C     0.0054     0.5018     0.2942
A_1     C     0.095     0.678     0.2803
A_1     C     0.5704     0.2584     0.433
A_2     C     0.4103     0.0174     0.7228
A_1     C     0.6123     0.6892     0.5598
A_1     C     0.0327     0.6985     0.243
A_0     C     0.4356     0.1717     0.7611
A_2     C     0.0979     0.0852     0.7623
A_0     C     0.2372     0.1436     0.0581
A_3     C     0.1195     0.2225     0.0577
A_0     C     0.5427     0.0765     0.0412
A_0     C     0.0075     0.6249     0.4127
A_2     C     0.0753     0.8728     0.6054
A_1     C     0.1819     0.04     0.9831
A_2     C     0.2317     0.7934     0.1334
A_0     C     0.0415     0.1251     0.2997
A_1     C     0.3382     0.5657     0.2899
A_2     C     0.2815     0.5567     0.4488
A_1     C     0.4239     0.2853     0.1539
A_1     C     0.0738     0.0418     0.7589
A_2     C     0.4335     0.4885     0.3519
A_3     C     0.4426     0.3948     0.4884
A_0     C     0.5284     0.4481     0.3685
A_3     C     0.7218     0.0072     0.1267
A_1     C     0.2257     0.932     0.7387
A_1     C     0.712     0.4213     0.9115
A_0     C     0.8922     0.3224     0.1975
A_2     C     0.3118     0.1879     0.4474
A_0     C     0.7398     0.2773     0.383
A_3     C     0.1121     0.7619     0.3002
A_0     C     0.0033     0.1722     0.0617
A_3     C     0.6767     0.5972     0.6501
A_0     C     0.953     0.7618     0.093
A_3     C     0.2983     0.7935     0.0996
A_0     C     0.6469     0.0907     0.4384
A_1     C     0.0833     0.8465     0.5951
A_2     C     0.6692     0.3198     0.8702
A_0     C     0.5329     0.4153     0.0595
A_3     C     0.1013     0.3941     0.2128
A_2     C     0.7567     0.1981     0.6671
A_3     C     0.0027     0.7785     0.8476
A_1     C     0.6624     0.195     0.8789
A_1     C     0.046     0.9148     0.8742
A_2     C     0.5154     0.2115     0.9891
A_1     C     0.084     0.6949     0.1949
A_0     C     0.1121     0.376     0.3989
A_0     C     0.5719     0.1761     0.2544
A_0     C     0.7896     0.6748     0.7959
A_0     C     0.5059     0.8881     0.7211
A_2     C     0.8843     0.4028     0.3093
A_1     C     0.2677     0.5312     0.8542
A_0     C     0.1369     0.8159     0.9555
A_1     C     0.4927     0.0083     0.4934
A_2     C     0.9462     0.416     0.747
A_1     C     0.0515     0.3477     0.098
A_1     C     0.5805     0.887     0.7395
A_3     C     0.4871     0.9564     0.9959
A_3     C     0.9995     0.7051     0.634
A_0     C     0.32     0.1197     0.3153
A_1     C     0.009     0.572     0.724
A_0     C     0.1081     0.7255     0.097
A_2     C     0.859     0.1574     0.6611
A_0     C     0.2286     0.5234     0.7558
A_3     C     0.4489     0.2927     0.7187
A_2     C     0.4769     0.838     0.3946
A_1     C     0.759     0.6628     0.331
A_0     C     0.4009     0.9962     0.5227
A_2     C     0.2761     0.3946     0.7048
A_1     C     0.1077     0.6808     0.5451
A_0     C     0.4213     0.7147     0.8066
A_3     C     0.5902     0.5075     0.5616
A_0     C     0.4404     0.8935     0.8888
A_2     C     0.3214     0.8955     0.4004
A_1     C     0.8707     0.9583     0.9322
A_3     C     0.706     0.9539     0.321
A_2     C     0.0124     0.7056     0.6542
A_0     C     0.2035     0.2197     0.0399
A_1     C     0.1387     0.1064     0.7625
A_1     C     0.5357     0.7404     0.7281
A_3     C     0.1095     0.157     0.022
A_0     C     0.3163     0.1498     0.4261
A_3     C     0.9975     0.4492     0.0642
A_3     C     0.2186     0.1845     0.8643
A_2     C     0.9204     0.5485     0.0922
A_0     C     0.1047     0.5374     0.7788
A_2     C     0.1806     0.2915     0.9153
A_2     C     0.8965     0.5232     0.1139
A_0     C     0.088     0.3164     0.6804
A_3     C     0.1336     0.7828     0.4618
A_0     C     0.6804     0.0747     0.5683
A_1     C     0.8796     0.3804     0.9875
A_0     C     0.2593     0.5055     0.9839
A_2     C     0.7867     0.7626     0.2909
A_2     C     0.1293     0.0662     0.4744
A_0     C     0.3805     0.1625     0.5733
A_0     C     0.7068     0.9766     0.1612
A_2     C     0.4833     0.0036     0.6234
A_3     C     0.3396     0.8442     0.3237
A_1     C     0.3242     0.9581     0.3059
A_0     C     0.6437     0.5045     0.3385
A_3     C     0.3159     0.1274     0.6038
A_3     C     0.3375     0.2881     0.0338
A_2     C     0.4473     0.1241     0.0754
A_2     C     0.1954     0.8848     0.6406
A_3     C     0.8065     0.8588     0.9898
A_0     C     0.8537     0.2125     0.3921
A_1     C     0.2     0.317     0.8933
A_2     C     0.9632     0.5267     0.0902
A_2     C     0.9985     0.4764     0.486
A_3     C     0.5171     0.0806     0.8845
A_1     C     0.4877     0.6034     0.5031
A_2     C     0.0002     0.2418     0.0187
A_0     C     0.8093     0.0136     0.2007
A_0     C     0.5345     0.6006     0.7841
A_3     C     0.057     0.3672     0.2982
A_1     C     0.18     0.8201     0.1833
A_1     C     0.4215     0.8871     0.1915
A_1     C     0.5019     0.9791     0.5218
A_0     C     0.803     0.8023     0.201
A_3     C     0.0887     0.3622     0.6202
A_2     C     0.85     0.4695     0.1631
A_3     C     0.0893     0.9245     0.9662
A_3     C     0.9999     0.5406     0.7057
A_0     C     0.5395     0.1519     0.4531
A_1     C     0.3436     0.2567     0.531
A_0     C     0.3242     0.3461     0.8524
A_1     C     0.163     0.5984     0.1507
A_0     C     0.6661     0.4311     0.0099
A_3     C     0.9282     0.0887     0.2526
A_1     C     0.9878     0.1201     0.9513
A_2     C     0.6902     0.8693     0.8235
A_0     C     0.592     0.7817     0.2441
A_3     C     0.9693     0.3758     0.5823
A_0     C     0.2435     0.3587     0.9526
A_3     C     0.9907     0.6514     0.9778
A_1     C     0.3206     0.9303     0.8649
A_2     C     0.8478     0.5737     0.5634
A_0     C     0.1489     0.5661     0.2852
A_2     C     0.6893     0.1527     0.5232
A_3     C     0.7748     0.3612     0.427
A_0     C     0.6641     0.1521     0.7142
A_3     C     0.9737     0.5128     0.6839
A_0     C     0.0933     0.3875     0.7598
A_2     C     0.5563     0.1592     0.7747
A_2     C     0.9037     0.2528     0.0926
A_3     C     0.6996     0.7778     0.6065
A_1     C     0.0728     0.3916     0.1357
A_1     C     0.7584     0.6573     0.1201
A_3     C     0.9386     0.0787     0.6455
A_3     C     0.2989     0.9013     0.6578
A_0     C     0.1412     0.7056     0.8332
A_3     C     0.5797     0.5503     0.0636
A_1     C     0.6782     0.6984     0.9966
A_1     C     0.777     0.6911     0.2224
A_2     C     0.1796     0.4322     0.8795
A_2     C     0.2373     0.6894     0.4533
A_2     C     0.6464     0.8331     0.1446
A_3     C     0.321     0.6384     0.6248
A_3     C     0.1174     0.0593     0.1436
A_3     C     0.2133     0.0446     0.2723
A_0     C     0.9745     0.4548     0.8754
A_0     C     0.1387     0.4667     0.1091
A_0     C     0.8818     0.7904     0.3634
A_0     C     0.5296     0.7836     0.7728
A_2     C     0.9887     0.7907     0.7564
A_3     C     0.8002     0.3482     0.5035
A_0     C     0.6659     0.3067     0.2818
A_1     C     0.3936     0.7402     0.1011
A_2     C     0.8866     0.5508     0.4154
A_2     C     0.752     0.9165     0.4936
A_0     C     0.9165     0.4691     0.9223
A_3     C     0.7385     0.9767     0.7494
A_2     C     0.5398     0.1369     0.3571
A_0     C     0.5767     0.9404     0.202
A_2     C     0.1131     0.3818     0.8221
A_1     C     0.7509     0.9855     0.1957
A_2     C     0.6203     0.7671     0.5553
A_2     C     0.3584     0.3051     0.1804
A_2     C     0.5588     0.5213     0.6418
A_3     C     0.5122     0.353     0.7895
A_2     C     0.0872     0.6757     0.4504
A_1     C     0.8656     0.7807     0.3384
A_2     C     0.6979     0.815     0.6042
A_2     C     0.5412     0.4162     0.0077
A_3     C     0.1487     0.053     0.0506
A_2     C     0.2842     0.0976     0.8318
A_3     C     0.9947     0.0151     0.7324
A_2     C     0.7521     0.7681     0.7382
A_2     C     0.5112     0.1723     0.188
A_2     C     0.3653     0.314     0.0934
A_2     C     0.3855     0.0189     0.7593
A_2     C     0.8319     0.9841     0.1781
A_2     C     0.4384     0.8409     0.4402
A_2     C     0.6906     0.2254     0.1264
A_1     C     0.7745     0.5426     0.7149
A_3     C     0.7642     0.472     0.8485
A_1     C     0.5378     0.3591     0.9987
A_1     C     0.0201     0.5185     0.9777
A_0     C     0.7128     0.5956     0.5588
A_0     C     0.3992     0.2309     0.1637
A_1     C     0.817     0.6539     0.4405
A_2     C     0.6378     0.7161     0.8775
A_0     C     0.6683     0.535     0.2038
A_1     C     0.8917     0.2284     0.5078
A_0     C     0.7799     0.0295     0.8905
A_1     C     0.7794     0.1874     0.0991
A_1     C     0.0582     0.6506     0.0963
A_1     C     0.2346     0.8372     0.1641
A_1     C     0.3784     0.3421     0.3961
A_2     C     0.8585     0.9711     0.9256
A_3     C     0.3671     0.5189     0.0516
A_2     C     0.3604     0.9979     0.5081
A_0     C     0.7751     0.3857     0.854
A_0     C     0.0445     0.0753     0.8476
A_1     C     0.9045     0.7315     0.7492
A_2     C     0.1131     0.2601     0.9881
A_1     C     0.0438     0.1323     0.1898
A_1     C     0.6042     0.3646     0.0389
A_2     C     0.0997     0.2972     0.081
A_1     C     0.5701     0.1132     0.9677
A_0     C     0.7693     0.136     0.0876
A_1     C     0.0028     0.6875     0.2102
A_1     C     0.3255     0.5246     0.5236
A_2     C     0.7516     0.5449     0.7459
A_1     C     0.7067     0.3211     0.5613
A_2     C     0.4829     0.57     0.4176
A_2     C     0.2526     0.9219     0.2788
A_3     C     0.6543     0.7397     0.3344
A_3     C     0.5838     0.5562     0.2515
A_0     C     0.8062     0.6092     0.25
A_3     C     0.3892     0.9905     0.1915
A_1     C     0.2224     0.1037     0.1994
A_2     C     0.0349     0.9763     0.7504
A_1     C     0.2744     0.2951     0.3485
A_2     C     0.2812     0.3692     0.0431
A_2     C     0.878     0.1324     0.1411
A_2     C     0.9234     0.3307     0.0124
A_3     C     0.9646     0.5422     0.4052
A_3     C     0.6642     0.0967     0.2066
A_3     C     0.9092     0.416     0.8764
A_1     C     0.2941     0.8636     0.1592
A_0     C     0.9038     0.115     0.9398
A_2     C     0.1946     0.4374     0.3626
A_3     C     0.1559     0.5032     0.1605
A_3     C     0.2069     0.4562     0.0627
A_3     C     0.6074     0.1275     0.2761
A_2     C     0.6189     0.2768     0.2713
A_0     C     0.8326     0.0687     0.792
A_3     C     0.2173     0.9437     0.0042
A_3     C     0.4356     0.9866     0.0666
A_1     C     0.288     0.1105     0.0849
A_0     C     0.3335     0.2091     0.795
A_2     C     0.5353     0.0295     0.0065
A_0     C     0.1438     0.201     0.0421
A_1     C     0.6596     0.4654     0.6038
A_2     C     0.3045     0.5525     0.573
A_3     C     0.6778     0.5115     0.4632
A_1     C     0.9605     0.676     0.2957
A_0     C     0.563     0.9313     0.1655
A_2     C     0.7896     0.4881     0.4951
A_1     C     0.213     0.9932     0.7554
A_1     C     0.5552     0.1664     0.1424
A_0     C     0.174     0.4155     0.759
A_0     C     0.6628     0.2631     0.6486
A_2     C     0.9841     0.4303     0.5768
A_0     C     0.1599     0.796     0.9081
A_0     C     0.9312     0.1771     0.268
A_1     C     0.9103     0.8856     0.1672
A_2     C     0.1562     0.5392     0.1295
A_3     C     0.8658     0.2352     0.3773
A_2     C     0.6188     0.1873     0.2843
A_3     C     0.6663     0.8484     0.8035
A_3     C     0.0633     0.9729     0.5862
A_1     C     0.759     0.2181     0.0526
A_0     C     0.8416     0.6091     0.1028
A_1     C     0.549     0.6674     0.2056
A_3     C     0.7316     0.0522     0.6323
A_2     C     0.0404     0.4286     0.0876
A_0     C     0.3775     0.4277     0.4269
A_2     C     0.5368     0.9045     0.5143
A_1     C     0.2324     0.6678     0.8442
A_0     C     0.8033     0.0186     0.929
A_2     C     0.8072     0.1818     0.3824
A_3     C     0.3435     0.6738     0.3032
A_1     C     0.1559     0.5686     0.1638
A_1     C     0.9213     0.5394     0.7474
A_1     C     0.4965     0.7704     0.9063
A_1     C     0.499     0.9807     0.8283
A_2     C     0.3815     0.5368     0.128
A_0     C     0.42     0.0017     0.3856
A_2     C     0.8089     0.2151     0.2471
A_2     C     0.203     0.5354     0.9296
A_3     C     0.7175     0.736     0.0026
A_3     C     0.8859     0.1912     0.4455
A_3     C     0.2478     0.5771     0.8363
A_2     C     0.0026     0.1711     0.7546
A_0     C     0.0558     0.4752     0.9546
A_2     C     0.4285     0.8043     0.5259
A_3     C     0.2733     0.0906     0.3404
A_3     C     0.1118     0.1071     0.9158
A_0     C     0.5805     0.1785     0.614
A_2     C     0.1525     0.2294     0.2142
A_1     C     0.2484     0.9934     0.2595
A_3     C     0.4338     0.5669     0.005
A_1     C     0.2602     0.6089     0.1536
A_1     C     0.7569     0.7051     0.9824
A_1     C     0.8439     0.8316     0.9424
A_2     C     0.9782     0.1179     0.5844
A_0     C     0.5463     0.0828     0.3868
A_0     C     0.3116     0.0054     0.6704
A_3     C     0.0214     0.0577     0.7814
A_1     C     0.0548     0.0132     0.4289
A_3     C     0.909     0.447     0.1322
A_0     C     0.8626     0.0889     0.2206
A_3     C     0.9413     0.4482     0.1032
A_0     C     0.446     0.4326     0.8772
A_2     C     0.5455     0.3718     0.1704
A_2     C     0.7318     0.0909     0.3743
A_1     C     0.19     0.6964     0.9527
A_0     C     0.2459     0.7353     0.9269
A_3     C     0.7313     0.8132     0.1007
A_0     C     0.0044     0.0264     0.5587
A_1     C     0.7109     0.1846     0.0387
A_3     C     0.9961     0.8766     0.6513
A_1     C     0.6127     0.7312     0.4967
A_1     C     0.7447     0.9965     0.6782
A_0     C     0.1008     0.1692     0.2042
A_1     C     0.9115     0.9776     0.0396
A_0     C     0.7728     0.3687     0.3596
A_1     C     0.8824     0.8479     0.264
A_3     C     0.19     0.9302     0.0051
A_2     C     0.7538     0.5315     0.9713
A_0     C     0.6783     0.9942     0.7678
A_1     C     0.4647     0.151     0.8919
A_2     C     0.9079     0.4698     0.875
A_3     C     0.4031     0.8923     0.1464
A_1     C     0.9122     0.4798     0.7517
A_3     C     0.4536     0.1658     0.5951
A_0     C     0.5413     0.4635     0.3188
A_0     C     0.6099     0.6263     0.3593
A_2     C     0.6285     0.8785     0.378
A_2     C     0.5421     0.0362     0.3002
A_1     C     0.6438     0.0245     0.7552
A_1     C     0.3725     0.8338     0.9738
A_1     C     0.5115     0.3199     0.4999
A_1     C     0.5356     0.4302     0.7339
A_1     C     0.5073     0.1863     0.5025
A_3     C     0.2704     0.8865     0.5589
A_3     C     0.9743     0.0455     0.0311
A_0     C     0.4215     0.1027     0.4738
A_2     C     0.4824     0.6243     0.4619
A_1     C     0.1139     0.346     0.6452
A_0     C     0.9382     0.5403     0.0509
A_2     C     0.4295     0.8889     0.1349
A_0     C     0.7843     0.867     0.2864
A_1     C     0.9131     0.9365     0.946
A_2     C     0.3981     0.6047     0.7147
A_1     C     0.8024     0.9981     0.6252
A_0     C     0.657     0.1069     0.5835
A_0     C     0.1215     0.5965     0.9624
A_3     C     0.3062     0.4253     0.1049
A_0     C     0.5087     0.4841     0.7132
A_3     C     0.1301     0.7904     0.287
A_3     C     0.2219     0.8842     0.5603
A_3     C     0.2602     0.9643     0.4708
A_1     C     0.1797     0.0271     0.4109
A_0     C     0.5659     0.5798     0.4696
A_1     C     0.151     0.5176     0.5246
A_2     C     0.5637     0.4128     0.4181
A_1     C     0.9503     0.8815     0.1443
A_0     C     0.958     0.5343     0.9749
A_3     C     0.7565     0.7294     0.2512
A_2     C     0.6071     0.6806     0.1844
A_2     C     0.3013     0.6688     0.7842
A_2     C     0.0539     0.8447     0.8058
A_2     C     0.8918     0.3494     0.2436
A_0     C     0.0359     0.1322     0.7515
A_1     C     0.9924     0.1673     0.5616
A_3     C     0.7587     0.7677     0.26
A_3     C     0.263     0.4667     0.0622
A_2     C     0.868     0.4219     0.4435
A_1     C     0.4003     0.0948     0.7103
A_2     C     0.2582     0.3558     0.0834
A_2     C     0.3919     0.9941     0.6211
A_2     C     0.3482     0.5782     0.8227
A_0     C     0.1179     0.7083     0.7757
A_2     C     0.6168     0.2178     0.425
A_0     C     0.0764     0.3129     0.5706
A_0     C     0.8262     0.4334     0.4798
A_1     C     0.5661     0.3858     0.7774
A_0     C     0.605     0.9693     0.0148
A_2     C     0.6048     0.6014     0.6692
A_0     C     0.4851     0.9279     0.0061
A_1     C     0.1949     0.8676     0.6769
A_0     C     0.4988     0.488     0.1314
A_3     C     0.5856     0.5304     0.5158
A_2     C     0.4376     0.7323     0.5144
A_0     C     0.7416     0.2128     0.3065
A_1     C     0.8033     0.2021     0.4992
A_1     C     0.3038     0.5831     0.7503
A_2     C     0.1397     0.932     0.1304
A_3     C     0.1041     0.4667     0.9672
A_2     C     0.2229     0.8482     0.4659
A_1     C     0.5309     0.6463     0.4661
A_0     C     0.23     0.2681     0.1262
A_3     C     0.2062     0.2563     0.2859
A_2     C     0.1995     0.8766     0.5934
A_0     C     0.8025     0.6262     0.0466
A_0     C     0.5852     0.2084     0.785
A_0     C     0.8542     0.9635     0.0763
A_1     C     0.9244     0.9647     0.6208
A_2     C     0.7921     0.733     0.0272
A_2     C     0.8434     0.0678     0.6176
A_3     C     0.797     0.2411     0.0468
A_0     C     0.9156     0.9718     0.6107
A_2     C     0.8468     0.8438     0.1667
A_0     C     0.4203     0.4123     0.1008
A_3     C     0.7516     0.5072     0.923
A_2     C     0.0463     0.7823     0.6877
A_0     C     0.747     0.3421     0.1498
A_0     C     0.2423     0.1678     0.621
A_1     C     0.2305     0.3651     0.2947
A_1     C     0.3791     0.4686     0.5577
A_0     C     0.5164     0.4322     0.3108
A_2     C     0.1244     0.3452     0.7514
A_2     C     0.1986     0.9968     0.217
A_0     C     0.8717     0.9952     0.4481
A_2     C     0.1326     0.8117     0.4369
A_0     C     0.1004     0.8778     0.6777
A_2     C     0.5921     0.699     0.3809
A_3     C     0.1887     0.6007     0.425
A_2     C     0.0376     0.8759     0.8572
A_1     C     0.6884     0.1405     0.3996
A_1     C     0.171     0.1543     0.8709
A_1     C     0.3276     0.7444     0.3896
A_0     C     0.6573     0.9676     0.516
A_2     C     0.3181     0.8209     0.4717
A_2     C     0.1662     0.7415     0.2054
A_2     C     0.2562     0.7974     0.7964
A_1     C     0.1609     0.1737     0.1406
A_2     C     0.8667     0.5989     0.9604
A_2     C     0.9216     0.0361     0.0963
A_3     C     0.5369     0.7022     0.5829
A_2     C     0.203     0.856     0.9917
A_3     C     0.0037     0.2466     0.8881
A_0     C     0.5512     0.5351     0.3385
A_0     C     0.7005     0.9361     0.4036
A_0     C     0.0765     0.9662     0.7583
A_3     C     0.837     0.9972     0.5942
A_2     C     0.6432     0.141     0.7634
A_1     C     0.7632     0.9727     0.2671
A_2     C     0.1954     0.2172     0.621
A_3     C     0.3691     0.478     0.3458
A_2     C     0.5441     0.8712     0.3144
A_2     C     0.3278     0.1979     0.7267
A_3     C     0.4254     0.9297     0.5833
A_0     C     0.9314     0.3631     0.0133
A_0     C     0.5178     0.3843     0.2306
A_1     C     0.0569     0.2671     0.5475
A_1     C     0.1808     0.1611     0.0391
A_1     C     0.3559     0.8664     0.6399
A_2     C     0.1581     0.1046     0.1731
A_3     C     0.6686     0.4524     0.6815
A_2     C     0.7607     0.6369     0.1173
A_3     C     0.412     0.3478     0.8759
A_0     C     0.8389     0.3986     0.6109
A_1     C     0.3883     0.3736     0.3686
A_3     C     0.2496     0.5586     0.0724
A_2     C     0.6844     0.87     0.848
A_1     C     0.3718     0.9523     0.9074
A_0     C     0.7004     0.4925     0.5932
A_3     C     0.8351     0.7503     0.7463
A_3     C     0.7568     0.221     0.2985
A_2     C     0.3605     0.1695     0.7231
A_2     C     0.26     0.3517     0.8224
A_1     C     0.3968     0.727     0.2951
A_1     C     0.5498     0.21     0.1026
A_0     C     0.9445     0.2648     0.9941
A_3     C     0.2264     0.7683     0.6499
A_2     C     0.3527     0.9452     0.8484
A_1     C     0.3774     0.3505     0.4749
A_1     C     0.9041     0.3579     0.5329
A_3     C     0.1599     0.3011     0.0601
A_1     C     0.113     0.884     0.9487
A_2     C     0.1908     0.0716     0.5959
A_3     C     0.7286     0.2732     0.8956
A_0     C     0.116     0.9682     0.9908
A_0     C     0.8738     0.9776     0.4612
A_2     C     0.2313     0.6601     0.0983
A_1     C     0.0957     0.5383     0.6438
A_3     C     0.8205     0.8226     0.0324
A_0     C     0.9305     0.7433     0.1502
A_1     C     0.2523     0.0001     0.7777
A_1     C     0.8706     0.4125     0.9709
A_0     C     0.2683     0.3773     0.1473
A_2     C     0.365     0.5696     0.4587
A_2     C     0.3142     0.0954     0.4169
A_1     C     0.4345     0.0912     0.7042
A_0     C     0.4605     0.3094     0.315
A_0     C     0.1313     0.5704     0.4648
A_1     C     0.3497     0.552     0.9168
A_3     C     0.4307     0.4761     0.7531
A_0     C     0.7544     0.5411     0.8263
A_2     C     0.2647     0.996     0.1949
A_2     C     0.659     0.3517     0.5728
A_1     C     0.1932     0.73     0.1461
A_1     C     0.8935     0.4231     0.1364
A_1     C     0.6759     0.4483     0.7529
A_3     C     0.1325     0.0522     0.2332
A_0     C     0.696     0.4608     0.8858
A_0     C     0.7974     0.8082     0.158
A_1     C     0.1936     0.4397     0.6569
A_0     C     0.2544     0.6693     0.1919
A_3     C     0.7354     0.8734     0.4127
A_2     C     0.0678     0.3475     0.4124
A_1     C     0.6973     0.9434     0.2609
A_3     C     0.6961     0.5595     0.0949
A_3     C     0.1239     0.627     0.3292
A_1     C     0.2555     0.2639     0.3192
A_0     C     0.89     0.6654     0.532
A_2     C     0.8549     0.688     0.5148
A_1     C     0.3288     0.7551     0.9214
A_3     C     0.4319     0.17     0.7944
A_1     C     0.1958     0.6875     0.3174
A_0     C     0.9658     0.8048     0.9952
A_0     C     0.9526     0.915     0.6416
A_0     C     0.0394     0.5103     0.5815
A_1     C     0.1549     0.7214     0.9211
A_3     C     0.2111     0.7113     0.8058
A_0     C     0.1424     0.3416     0.9713
A_1     C     0.1134     0.424     0.5565
A_2     C     0.9158     0.7682     0.3762
A_2     C     0.6894     0.8463     0.3797
A_3     C     0.6723     0.8518     0.2038
A_2     C     0.3508     0.8679     0.1926
A_0     C     0.42     0.3517     0.16
A_0     C     0.3885     0.0213     0.8915
A_2     C     0.4778     0.7259     0.1448
A_0     C     0.0946     0.1763     0.9151
A_3     C     0.759     0.7535     0.5752
A_3     C     0.1728     0.2153     0.2707
A_0     C     0.4768     0.6224     0.7189
A_0     C     0.2879     0.3157     0.5178
A_0     C     0.0064     0.6661     0.6387
A_1     C     0.3323     0.8509     0.2289
A_3     C     0.8557     0.5257     0.9116
A_3     C     0.9138     0.7683     0.447
A_1     C     0.3124     0.1118     0.6811
A_0     C     0.6159     0.789     0.8479
A_3     C     0.2897     0.1334     0.1174
A_2     C     0.9056     0.3045     0.2035
A_2     C     0.4784     0.2859     0.1796
A_1     C     0.4776     0.5232     0.1141
A_3     C     0.5411     0.6903     0.8157
A_2     C     0.6608     0.011     0.1947
A_1     C     0.3409     0.3032     0.9514
A_3     C     0.9979     0.1451     0.1506
A_3     C     0.0166     0.5108     0.3718
A_3     C     0.2009     0.1166     0.8605
A_1     C     0.7317     0.3622     0.3415
A_2     C     0.1115     0.2156     0.5754
A_0     C     0.2326     0.6508     0.0507
A_2     C     0.362     0.3701     0.5601
A_3     C     0.4109     0.4551     0.3431
A_0     C     0.4891     0.6472     0.0482
A_2     C     0.5777     0.1566     0.6241
A_3     C     0.324     0.2383     0.5498
A_0     C     0.1953     0.3981     0.1332
A_1     C     0.5229     0.6498     0.147
A_2     C     0.5435     0.8176     0.1738
A_2     C     0.1425     0.9018     0.5968
A_0     C     0.468     0.0676     0.9043
A_1     C     0.2525     0.9766     0.2699
A_1     C     0.5553     0.792     0.654
A_1     C     0.3118     0.4817     0.9243
A_1     C     0.3195     0.5271     0.9565
A_2     C     0.2469     0.329     0.1303
A_3     C     0.2798     0.1821     0.2308
A_0     C     0.9718     0.8241     0.3825
A_0     C     0.7202     0.3724     0.8165
A_0     C     0.7986     0.7542     0.9341
A_2     C     0.468     0.8288     0.7059
A_1     C     0.5357     0.028     0.748
A_1     C     0.4237     0.8375     0.568
A_1     C     0.0252     0.6243     0.5403
A_1     C     0.3081     0.8633     0.9017
A_1     C     0.3068     0.4302     0.5978
A_3     C     0.1053     0.0539     0.3686
A_0     C     0.3212     0.0173     0.8976
A_2     C     0.415     0.3994     0.79
A_2     C     0.784     0.3504     0.3324
A_1     C     0.0881     0.9691     0.4934
A_0     C     0.802     0.2956     0.9237
A_2     C     0.175     0.4847     0.9203
A_1     C     0.32     0.9739     0.4414
A_2     C     0.2808     0.9731     0.9498
A_2     C     0.9379     0.1312     0.057
A_2     C     0.9503     0.4557     0.9573
A_3     C     0.4852     0.3351     0.3912
A_1     C     0.0574     0.3101     0.7525
A_2     C     0.3278     0.6897     0.7135
A_2     C     0.3345     0.9708     0.3323
A_0     C     0.1123     0.3618     0.3491
A_3     C     0.5644     0.7186     0.5252
A_0     C     0.566     0.5435     0.0889
A_1     C     0.6496     0.6084     0.3688
A_1     C     0.3405     0.3102     0.9145
A_2     C     0.0719     0.0355     0.4321
A_2     C     0.997     0.0855     0.7305
A_3     C     0.2147     0.5657     0.6904
A_1     C     0.5647     0.2442     0.699
A_0     C     0.0443     0.7035     0.6334
A_2     C     0.0263     0.3606     0.0502
A_0     C     0.8317     0.1505     0.7965
A_0     C     0.5628     0.1904     0.5517
A_1     C     0.5573     0.9465     0.3494
A_0     C     0.5341     0.4646     0.4033
A_2     C     0.957     0.8755     0.2354
A_0     C     0.5147     0.2671     0.7555
A_3     C     0.056     0.4224     0.3683
A_2     C     0.7383     0.7678     0.8072
A_3     C     0.8287     0.6655     0.716
A_0     C     0.7957     0.1796     0.338
A_0     C     0.0692     0.1923     0.3892
A_1     C     0.3797     0.3052     0.047
A_3     C     0.1901     0.2991     0.6218
A_3     C     0.3613     0.5365     0.2019
A_1     C     0.4527     0.418     0.1431
A_0     C     0.9201     0.3026     0.623
A_0     C     0.5543     0.3937     0.9247
A_0     C     0.7831     0.593     0.6771
A_0     C     0.0222     0.4197     0.2746
A_3     C     0.7515     0.8326     0.8404
A_2     C     0.2621     0.4154     0.5744
A_3     C     0.0791     0.8761     0.2488
A_3     C     0.7666     0.1503     0.0879
A_3     C     0.0425     0.7738     0.5751
A_2     C     0.6052     0.3703     0.2702
A_1     C     0.482     0.477     0.8761
A_3     C     0.8128     0.199     0.1893
A_3     C     0.8193     0.5382     0.109
A_1     C     0.738     0.7718     0.7167
A_3     C     0.7106     0.4123     0.6993
A_1     C     0.0789     0.8919     0.2346
A_2     C     0.6748     0.8549     0.7527
A_3     C     0.6647     0.8152     0.3029
A_1     C     0.7119     0.4201     0.3599
A_2     C     0.3988     0.4628     0.3278
A_3     C     0.9225     0.1829     0.165
A_2     C     0.5373     0.1205     0.9921
A_0     C     0.3268     0.3244     0.0731
A_1     C     0.2739     0.5081     0.6035
A_2     C     0.2851     0.0394     0.7058
A_1     C     0.5716     0.2825     0.4561
A_0     C     0.8219     0.7573     0.7733
A_0     C     0.7277     0.3395     0.4218
A_2     C     0.0061     0.1226     0.4017
A_0     C     0.0933     0.0302     0.1037
A_2     C     0.2224     0.5845     0.8513
A_3     C     0.6372     0.1919     0.9263
A_0     C     0.9632     0.6288     0.4969
A_0     C     0.7556     0.953     0.8746
A_1     C     0.9128     0.037     0.7621
A_1     C     0.4729     0.6256     0.7507
A_3     C     0.1554     0.3213     0.1372
A_3     C     0.3265     0.5808     0.8326
A_2     C     0.5128     0.9563     0.4225
A_2     C     0.1867     0.2515     0.2673
A_0     C     0.3541     0.2742     0.8709
A_2     C     0.996     0.8193     0.1744
A_3     C     0.7833     0.4429     0.0345
A_0     C     0.643     0.3268     0.821
A_1     C     0.3088     0.2558     0.4873
A_3     C     0.6336     0.908     0.6047
A_1     C     0.0005     0.374     0.1013
A_0     C     0.8707     0.2081     0.3417
A_1     C     0.0693     0.0433     0.1998
A_0     C     0.1166     0.2992     0.7609
A_3     C     0.4333     0.7879     0.7871
A_3     C     0.7959     0.7583     0.848
A_1     C     0.8286     0.5599     0.5734
A_0     C     0.2085     0.4375     0.6433
A_1     C     0.577     0.3136     0.4046
A_1     C     0.8169     0.8137     0.5162
A_2     C     0.8591     0.0231     0.1581
A_0     C     0.3129     0.9377     0.9622
A_1     C     0.9953     0.4639     0.3146
A_1     C     0.6895     0.567     0.0133
A_0     C     0.878     0.9951     0.8226
A_0     C     0.1606     0.7503     0.2105
A_2     C     0.6598     0.7124     0.1568
A_1     C     0.1058     0.894     0.6779
A_0     C     0.3926     0.5072     0.6895
A_0     C     0.6114     0.2821     0.0093
A_0     C     0.08     0.3723     0.4224
A_3     C     0.6733     0.5119     0.8517
A_3     C     0.6216     0.7602     0.5454
A_3     C     0.0216     0.0485     0.0295
A_0     C     0.5923     0.441     0.196
A_0     C     0.3283     0.0902     0.1743
A_3     C     0.7689     0.5707     0.3118
A_1     C     0.3362     0.2041     0.2731
A_0     C     0.888     0.1849     0.3238
A_3     C     0.5014     0.0935     0.0318
A_0     C     0.6082     0.7842     0.554
A_2     C     0.16     0.5653     0.0268
A_1     C     0.5698     0.2474     0.0862
A_3     C     0.0143     0.3324     0.195
A_1     C     0.1324     0.5917     0.0491
A_0     C     0.7503     0.5346     0.4299
A_1     C     0.4111     0.4551     0.7742
A_0     C     0.1566     0.7488     0.9342
A_1     C     0.6194     0.0968     0.0781
A_0     C     0.6087     0.8793     0.0468
A_0     C     0.4387     0.8964     0.9081
A_3     C     0.5861     0.9239     0.6621
A_1     C     0.9123     0.7614     0.3873
A_1     C     0.6854     0.7707     0.1881
A_2     C     0.7597     0.0568     0.3335
A_1     C     0.4778     0.2191     0.3303
A_0     C     0.0781     0.8023     0.84
A_1     C     0.582     0.9232     0.2178
A_0     C     0.3609     0.8691     0.6973
A_1     C     0.5496     0.4054     0.247
A_2     C     0.3069     0.976     0.9437
A_2     C     0.5757     0.8142     0.5624
A_1     C     0.8123     0.1569     0.5942
A_2     C     0.5888     0.4425     0.0566
A_2     C     0.3449     0.2329     0.4447
A_1     C     0.4024     0.4751     0.884
A_2     C     0.595     0.327     0.0752
A_3     C     0.5198     0.562     0.3806
A_2     C     0.1879     0.3316     0.1559
A_2     C     0.2273     0.5651     0.5633
A_2     C     0.2192     0.9898     0.432
A_1     C     0.2476     0.8218     0.5044
A_2     C     0.3838     0.792     0.4231
A_1     C     0.5023     0.743     0.95
A_1     C     0.9583     0.9657     0.6754
A_2     C     0.4395     0.3401     0.5038
A_1     C     0.5879     0.2005     0.0684
A_2     C     0.8361     0.0252     0.8957
A_2     C     0.6857     0.8267     0.4203
A_1     C     0.9392     0.3437     0.1571
A_2     C     0.9338     0.1263     0.1051
A_0     C     0.7469     0.1279     0.9167
A_3     C     0.7218     0.0653     0.5312
A_0     C     0.4024     0.8032     0.0366
A_1     C     0.318     0.1576     0.6934
A_2     C     0.4189     0.1934     0.9144
A_1     C     0.5139     0.6273     0.5028
A_3     C     0.513     0.631     0.5849
A_2     C     0.0403     0.0667     0.6443
A_3     C     0.0342     0.3846     0.0989
A_1     C     0.074     0.8804     0.5587
A_0     C     0.0157     0.0127     0.6534
A_2     C     0.9856     0.1373     0.8065
A_0     C     0.5067     0.1708     0.3528
A_1     C     0.752     0.5122     0.0221
A_3     C     0.4761     0.0244     0.29
A_2     C     0.3283     0.0395     0.043
A_1     C     0.4878     0.4686     0.7327
A_3     C     0.0856     0.7665     0.8476
A_1     C     0.0651     0.2147     0.4092
A_2     C     0.0468     0.8147     0.8394
A_3     C     0.6676     0.3124     0.1343
A_1     C     0.4431     0.7316     0.9718
A_0     C     0.9681     0.4013     0.2107
A_0     C     0.5016     0.503     0.2317
A_2     C     0.5547     0.2928     0.1738
A_0     C     0.3309     0.7632     0.8717
A_3     C     0.8992     0.5189     0.062
A_0     C     0.5875     0.0689     0.4221
A_2     C     0.9125     0.5526     0.4329
A_0     C     0.9893     0.3529     0.0086
A_3     C     0.3588     0.0405     0.7773
A_3     C     0.1185     0.4417     0.9082
A_0     C     0.6166     0.793     0.366
A_2     C     0.4534     0.8501     0.4407
A_3     C     0.9485     0.6969     0.1988
A_1     C     0.069     0.603     0.35
A_3     C     0.3443     0.6315     0.4485
A_2     C     0.4574     0.8249     0.9773
A_2     C     0.7292     0.9681     0.7384
A_2     C     0.6716     0.6065     0.2714
A_1     C     0.6085     0.8757     0.0978
A_1     C     0.0883     0.8871     0.2476
A_2     C     0.2535     0.4274     0.4214
A_1     C     0.3702     0.9009     0.5637
A_0     C     0.3304     0.9924     0.4303
A_3     C     0.7049     0.0111     0.1279
A_2     C     0.9176     0.7794     0.2335
A_0     C     0.4499     0.3302     0.2174
A_0     C     0.7583     0.6677     0.0643
A_3     C     0.4508     0.9024     0.4759
A_3     C     0.7551     0.7573     0.3112
A_3     C     0.5764     0.0095     0.2259
A_3     C     0.8172     0.3397     0.02
A_0     C     0.599     0.6333     0.1906
A_3     C     0.4507     0.2981     0.3667
A_1     C     0.4183     0.2191     0.1709
A_0     C     0.0833     0.1174     0.6877
A_1     C     0.7981     0.1893     0.7141
A_3     C     0.7187     0.7261     0.7637
A_2     C     0.2219     0.8945     0.2442
A_3     C     0.9295     0.3419     0.8285
A_0     C     0.0446     0.6604     0.6608
A_0     C     0.4935     0.5663     0.5499
A_2     C     0.4707     0.9923     0.2029
A_0     C     0.6247     0.2315     0.6689
A_1     C     0.1982     0.9306     0.3615
A_0     C     0.0239     0.6015     0.8873
A_2     C     0.8191     0.6918     0.2289
A_0     C     0.9882     0.2093     0.5843
A_2     C     0.7984     0.7131     0.3824
A_1     C     0.327     0.9532     0.7758
A_1     C     0.5485     0.7209     0.7242
A_2     C     0.8698     0.0262     0.5611
A_0     C     0.4976     0.6641     0.1745
A_3     C     0.8981     0.1503     0.7044
A_1     C     0.8493     0.423     0.5889
A_1     C     0.6208     0.546     0.0451
A_3     C     0.4793     0.2291     0.5483
A_0     C     0.5166     0.131     0.8031
A_2     C     0.7467     0.0116     0.0547
A_1     C     0.6652     0.6735     0.5342
A_1     C     0.4831     0.4036     0.9495
A_0     C     0.7036     0.7571     0.8057
A_3     C     0.5485     0.2614     0.7658
A_3     C     0.1388     0.2414     0.5134
A_1     C     0.0938     0.396     0.7895
A_0     C     0.2866     0.7104     0.3915
A_1     C     0.4168     0.5733     0.8961
A_0     C     0.0187     0.6988     0.5176
A_0     C     0.5706     0.0752     0.9258
A_2     C     0.0536     0.3426     0.4515
A_0     C     0.8055     0.4471     0.7951
A_0     C     0.4946     0.4913     0.4222
A_2     C     0.1197     0.6908     0.103
A_2     C     0.5665     0.8453     0.5065
A_1     C     0.8719     0.3943     0.5538
A_2     C     0.5393     0.0525     0.8264
A_2     C     0.192     0.0222     0.1513
A_3     C     0.2425     0.5941     0.2816
A_3     C     0.2949     0.0153     0.8269
A_2     C     0.5733     0.3774     0.8665
A_2     C     0.4255     0.8171     0.8783
A_2     C     0.2023     0.9919     0.1446
A_3     C     0.4256     0.007     0.2487
A_2     C     0.0729     0.1445     0.1585
A_1     C     0.2434     0.1432     0.8514
A_1     C     0.8895     0.2381     0.2064
A_0     C     0.4501     0.8906     0.7035
A_2     C     0.7162     0.2983     0.6437
A_3     C     0.2848     0.056     0.6406
A_3     C     0.6884     0.8573     0.7635
A_2     C     0.4133     0.827     0.6608
A_3     C     0.7511     0.3751     0.1599
A_0     C     0.101     0.2702     0.1274
A_2     C     0.5611     0.7153     0.3492
A_3     C     0.9782     0.1758     0.6657
A_3     C     0.101     0.41     0.983
A_1     C     0.9047     0.3144     0.419
A_0     C     0.8092     0.8976     0.4109
A_2     C     0.0433     0.1558     0.7277
A_2     C     0.7529     0.4372     0.6901
A_2     C     0.2497     0.2181     0.0303
A_1     C     0.3487     0.3195     0.2251
A_1     C     0.8459     0.6179     0.9892
A_1     C     0.8933     0.7219     0.4948
A_1     C     0.7667     0.2736     0.8023
A_3     C     0.6809     0.765     0.5059
A_0     C     0.5325     0.6463     0.6236
A_0     C     0.0244     0.9791     0.4905
A_2     C     0.9298     0.366     0.6566
A_1     C     0.1789     0.8174     0.4799
A_3     C     0.084     0.0811     0.5462
A_2     C     0.1968     0.6912     0.5138
A_2     C     0.5171     0.3609     0.3839
A_3     C     0.4699     0.5217     0.7984
A_1     C     0.0557     0.7869     0.3135
A_1     C     0.9957     0.2868     0.4205
A_1     C     0.4948     0.9046     0.9956
A_3     C     0.9508     0.5957     0.0766
A_3     C     0.5408     0.2413     0.3787
A_1     C     0.5184     0.0685     0.8126
A_3     C     0.5235     0.6346     0.6133
A_2     C     0.7412     0.4116     0.1984
A_2     C     0.2754     0.8845     0.1754
A_3     C     0.7706     0.5981     0.8256
A_2     C     0.9788     0.9511     0.2049
A_0     C     0.6554     0.2552     0.9738
A_1     C     0.3443     0.0001     0.2842
A_0     C     0.128     0.7465     0.7614
A_1     C     0.193     0.0997     0.5068
A_3     C     0.7262     0.1785     0.9066
A_1     C     0.1934     0.9475     0.8617
A_1     C     0.3113     0.6295     0.3919
A_1     C     0.5559     0.0702     0.4741
A_0     C     0.2187     0.5455     0.8637
A_3     C     0.3973     0.7333     0.2432
A_3     C     0.9687     0.963     0.5441
A_2     C     0.0097     0.5516     0.0002
A_1     C     0.7709     0.1453     0.4681
A_2     C     0.6555     0.1875     0.7963
A_1     C     0.6953     0.4316     0.9476
A_2     C     0.2111     0.7069     0.0836
A_2     C     0.2375     0.197     0.9655
A_2     C     0.0895     0.7942     0.3809
A_0     C     0.0352     0.2643     0.2487
A_1     C     0.8789     0.5317     0.7168
A_1     C     0.486     0.1468     0.7574
A_1     C     0.5824     0.0238     0.3306
A_1     C     0.8196     0.9174     0.647
A_0     C     0.8917     0.7371     0.6911
A_0     C     0.6017     0.7039     0.9938
A_3     C     0.1726     0.2197     0.8167
A_0     C     0.4683     0.4514     0.4433
A_0     C     0.5268     0.8416     0.9082
A_2     C     0.9766     0.718     0.0167
A_0     C     0.3888     0.2229     0.7585
A_2     C     0.9572     0.0951     0.8713
A_2     C     0.1927     0.4513     0.9111
A_0     C     0.808     0.5329     0.2142
A_1     C     0.7972     0.384     0.8882
A_0     C     0.0165     0.9832     0.1685
A_3     C     0.095     0.3603     0.8223
A_0     C     0.7394     0.5615     0.9372
A_1     C     0.4692     0.2389     0.3393
A_3     C     0.4428     0.3895     0.5659
A_1     C     0.8248     0.2557     0.5324
A_1     C     0.0794     0.2521     0.4161
A_3     C     0.0856     0.0789     0.2866
A_1     C     0.2019     0.9452     0.3662
A_1     C     0.4279     0.9068     0.0634
A_0     C     0.5545     0.1104     0.6847
A_0     C     0.6927     0.0438     0.2626
A_1     C     0.0863     0.9775     0.4063
A_1     C     0.6917     0.5888     0.5474
A_0     C     0.0458     0.9463     0.8367
A_2     C     0.0748     0.072     0.0685
A_1     C     0.8679     0.725     0.0754
A_3     C     0.3434     0.1448     0.189
A_0     C     0.2474     0.8551     0.0012
A_0     C     0.2913     0.3556     0.0191
A_2     C     0.8084     0.8568     0.0096
A_1     C     0.2015     0.0176     0.987
A_3     C     0.5789     0.9591     0.0795
A_0     C     0.5285     0.1182     0.8759
A_0     C     0.7187     0.39     0.3234
A_1     C     0.8851     0.9352     0.1378
A_2     C     0.9212     0.2374     0.6308
A_3     C     0.438     0.5     0.9368
A_0     C     0.73     0.9299     0.9027
A_3     C     0.5713     0.1559     0.4646
A_2     C     0.0626     0.2641     0.4491
A_1     C     0.6568     0.1587     0.5743
A_3     C     0.741     0.4915     0.4166
A_1     C     0.9935     0.3474     0.8365
A_3     C     0.818     0.5602     0.8082
A_2     C     0.1362     0.6078     0.1242
A_3     C     0.2287     0.5574     0.4844
A_2     C     0.99     0.489     0.2236
A_0     C     0.9955     0.3097     0.7594
A_2     C     0.1288     0.6671     0.7511
A_0     C     0.1685     0.8087     0.378
A_2     C     0.2452     0.8973     0.8601
A_3     C     0.9269     0.7961     0.2857
A_3     C     0.9969     0.0417     0.5799
A_3     C     0.1943     0.6191     0.62
A_3     C     0.8062     0.9355     0.5612
A_1     C     0.5492     0.0329     0.0845
A_3     C     0.0478     0.9847     0.0309
A_2     C     0.8641     0.3525     0.235
A_3     C     0.1596     0.3794     0.5172
A_1     C     0.4788     0.2016     0.6026
A_0     C     0.0589     0.2126     0.6784
A_0     C     0.3375     0.0516     0.7412
A_0     C     0.186     0.6108     0.5934
A_1     C     0.1355     0.4762     0.508
A_0     C     0.1839     0.9123     0.1816
A_1     C     0.5045     0.2717     0.5873
A_0     C     0.7688     0.1906     0.9083
A_2     C     0.024     0.7028     0.991
A_0     C     0.3797     0.0814     0.4991
A_0     C     0.2445     0.8154     0.6164
A_3     C     0.2615     0.925     0.599
A_1     C     0.1747     0.3865     0.8843
A_1     C     0.3498     0.9457     0.1502
A_1     C     0.046     0.9005     0.7117
A_3     C     0.404     0.11     0.9401
A_2     C     0.6306     0.4674     0.1212
A_1     C     0.265     0.7881     0.8409
A_1     C     0.2966     0.1793     0.1812
A_3     C     0.0413     0.4832     0.4937
A_1     C     0.5759     0.3382     0.32
A_1     C     0.537     0.2565     0.79
A_2     C     0.7752     0.0927     0.4208
A_2     C     0.5458     0.7768     0.3663
A_3     C     0.4347     0.7095     0.9074
A_1     C     0.5999     0.7992     0.7177
A_0     C     0.8268     0.0112     0.2596
A_0     C     0.2539     0.3334     0.6292
A_3     C     0.5612     0.0219     0.5354
A_2     C     0.9017     0.8568     0.8448
A_3     C     0.0474     0.8034     0.9852
A_1     C     0.352     0.9194     0.5635
A_2     C     0.2778     0.8237     0.8401
A_2     C     0.6903     0.0849     0.1239
A_2     C     0.3144     0.6536     0.5916
A_2     C     0.6554     0.9338     0.2238
A_2     C     0.9975     0.7842     0.1777
A_0     C     0.4298     0.2136     0.1388
A_1     C     0.7722     0.673     0.7519
A_2     C     0.6128     0.1751     0.8536
A_1     C     0.9745     0.6217     0.2059
A_3     C     0.1889     0.1322     0.9253
A_3     C     0.6652     0.5693     0.137
A_3     C     0.9878     0.1605     0.1688
A_1     C     0.3629     0.0977     0.9516
A_0     C     0.407     0.5242     0.3406
A_1     C     0.9127     0.8916     0.5471
A_2     C     0.1627     0.2653     0.8458
A_1     C     0.6099     0.2703     0.6328
A_2     C     0.8109     0.6548     0.5268
A_0     C     0.0314     0.0827     0.5654
A_3     C     0.5768     0.8379     0.9501
A_3     C     0.77     0.4696     0.1987
A_0     C     0.8339     0.5404     0.3161
A_2     C     0.0879     0.5819     0.6318
A_3     C     0.6469     0.6895     0.3094
A_0     C     0.4163     0.263     0.2483
A_2     C     0.2915     0.0207     0.9022
A_1     C     0.0608     0.9551     0.0581
A_0     C     0.8256     0.7782     0.2655
A_0     C     0.5717     0.9347     0.8979
A_0     C     0.9901     0.9658     0.5134
A_0     C     0.3383     0.2032     0.3894
A_1     C     0.9223     0.128     0.0289
A_3     C     0.8469     0.0804     0.6859
A_2     C     0.0505     0.1268     0.9378
A_3     C     0.4911     0.3288     0.0402
A_1     C     0.7812     0.69     0.1472
A_2     C     0.4167     0.8445     0.5895
A_0     C     0.7071     0.0583     0.9395
A_0     C     0.2121     0.1162     0.9053
A_0     C     0.2815     0.3527     0.4262
A_3     C     0.7021     0.8651     0.7624
A_0     C     0.3484     0.1905     0.7475
A_0     C     0.284     0.6498     0.4825
A_0     C     0.211     0.2055     0.6917
A_3     C     0.8683     0.8225     0.3301
A_0     C     0.1137     0.456     0.3652
A_2     C     0.6918     0.5027     0.0494
A_2     C     0.8001     0.3173     0.4807
A_2     C     0.5734     0.5347     0.0318
A_0     C     0.8773     0.3635     0.0225
A_2     C     0.0804     0.5059     0.5767
A_3     C     0.8378     0.668     0.3472
A_2     C     0.6977     0.8782     0.1915
A_2     C     0.243     0.9585     0.4555
A_0     C     0.3325     0.1147     0.0131
A_1     C     0.1367     0.0707     0.7423
A_1     C     0.4585     0.6803     0.6073
A_3     C     0.7134     0.2928     0.8285
A_0     C     0.5337     0.2959     0.2134
A_2     C     0.0731     0.0208     0.7348
A_2     C     0.362     0.8242     0.6896
A_0     C     0.2619     0.6115     0.0941
A_0     C     0.6136     0.7196     0.0863
A_0     C     0.2289     0.7284     0.0511
A_3     C     0.7545     0.4757     0.0666
A_2     C     0.6957     0.8668     0.9699
A_3     C     0.9434     0.8038     0.7557
A_1     C     0.6184     0.612     0.7852
A_1     C     0.5274     0.135     0.6989
A_2     C     0.5012     0.8247     0.4531
A_3     C     0.336     0.9885     0.3988
A_0     C     0.5359     0.3823     0.2234
A_2     C     0.7222     0.0377     0.7931
A_2     C     0.4495     0.2198     0.0102
A_0     C     0.8467     0.8667     0.3779
A_0     C     0.6432     0.3706     0.6561
A_1     C     0.0358     0.9267     0.6783
A_3     C     0.3077     0.5389     0.8174
A_0     C     0.3967     0.637     0.5006
A_2     C     0.1087     0.132     0.612
A_2     C     0.4505     0.9872     0.0963
A_1     C     0.1585     0.9035     0.1725
A_2     C     0.4448     0.1461     0.1303
A_1     C     0.8496     0.6868     0.2261
A_0     C     0.5028     0.8217     0.6308
A_0     C     0.8326     0.0516     0.2832
A_0     C     0.3905     0.3274     0.3918
A_3     C     0.0159     0.3321     0.804
A_0     C     0.403     0.9233     0.7879
A_0     C     0.1665     0.012     0.3687
A_1     C     0.9952     0.1593     0.7837
A_3     C     0.1923     0.4513     0.2235
A_3     C     0.4362     0.3335     0.0361
A_2     C     0.1916     0.0824     0.3853
A_1     C     0.8684     0.8543     0.8134
A_2     C     0.0544     0.9817     0.7807
A_2     C     0.8135     0.5325     0.2265
A_2     C     0.3363     0.6165     0.3222
A_2     C     0.4625     0.1744     0.8694
A_0     C     0.6146     0.8391     0.7858
A_2     C     0.6017     0.9799     0.7517
A_3     C     0.3552     0.4892     0.784
A_2     C     0.9354     0.9117     0.8802
A_2     C     0.1399     0.4786     0.7596
A_2     C     0.8244     0.1543     0.2088
A_3     C     0.2745     0.0244     0.6152
A_2     C     0.6282     0.1106     0.0524
A_3     C     0.5174     0.7959     0.4694
A_1     C     0.9882     0.7301     0.1139
A_1     C     0.6405     0.3263     0.4311
A_1     C     0.7546     0.3907     0.9537
A_2     C     0.2052     0.9081     0.1137
A_1     C     0.4118     0.3056     0.539
A_0     C     0.9667     0.3376     0.0202
A_2     C     0.6591     0.34     0.2422
A_1     C     0.9257     0.5077     0.5745
A_1     C     0.3992     0.2802     0.9809
A_2     C     0.4938     0.7225     0.9627
A_3     C     0.6993     0.8938     0.9818
A_2     C     0.2292     0.024     0.1936
A_1     C     0.6545     0.3951     0.4579
A_0     C     0.3642     0.3146     0.6616
A_3     C     0.2881     0.988     0.3334
A_2     C     0.7619     0.2887     0.6175
A_0     C     0.7305     0.7274     0.551
A_1     C     0.378     0.1745     0.7753
A_1     C     0.8707     0.9046     0.2315
A_3     C     0.6099     0.9766     0.3662
A_2     C     0.2185     0.3811     0.4677
A_1     C     0.1052     0.6394     0.4956
A_1     C     0.3777     0.1202     0.3397
A_1     C     0.0504     0.5854     0.2509
A_3     C     0.1538     0.1274     0.325
A_3     C     0.6988     0.4545     0.2978
A_0     C     0.1857     0.4617     0.3204
A_3     C     0.4833     0.5501     0.5198
A_0     C     0.1612     0.5396     0.9689
A_2     C     0.5642     0.0002     0.0872
A_0     C     0.9782     0.8975     0.9753
A_3     C     0.9631     0.6369     0.0186
A_1     C     0.5527     0.1094     0.5073
A_2     C     0.3546     0.8836     0.6941
A_0     C     0.1949     0.7074     0.2817
A_1     C     0.9475     0.9844     0.2843
A_0     C     0.4868     0.6606     0.5836
A_3     C     0.9359     0.3383     0.2682
A_3     C     0.6609     0.2359     0.5398
A_0     C     0.6298     0.0888     0.9243
A_0     C     0.9814     0.1223     0.5253
A_1     C     0.6153     0.1979     0.8295
A_1     C     0.7032     0.6283     0.2645
A_3     C     0.9591     0.258     0.4774
A_1     C     0.3896     0.5065     0.7249
A_1     C     0.1408     0.4633     0.9007
A_0     C     0.5182     0.6149     0.0113
A_3     C     0.1803     0.0051     0.9627
A_2     C     0.1693     0.7809     0.7448
A_3     C     0.6715     0.0824     0.5424
A_3     C     0.5367     0.6315     0.9165
A_1     C     0.0966     0.7523     0.6719
A_0     C     0.6454     0.4778     0.3047
A_0     C     0.0671     0.0013     0.4488
A_3     C     0.0263     0.4524     0.8947
A_1     C     0.1647     0.4211     0.1255
A_0     C     0.2908     0.6892     0.3129
A_0     C     0.8807     0.8633     0.8396
A_0     C     0.9534     0.6084     0.9436
A_1     C     0.8678     0.4158     0.9415
A_1     C     0.4672     0.4509     0.1362
A_1     C     0.9392     0.3302     0.535
A_1     C     0.7009     0.2562     0.2597
A_2     C     0.4621     0.4113     0.4607
A_0     C     0.8735     0.6072     0.4962
A_1     C     0.4814     0.2021     0.0255
A_2     C     0.6918     0.6969     0.1641
A_1     C     0.9679     0.6843     0.0933
A_2     C     0.2114     0.355     0.6197
A_3     C     0.5475     0.3111     0.399
A_1     C     0.8586     0.47     0.4468
A_0     C     0.3157     0.2699     0.8482
A_2     C     0.4062     0.6672     0.6405
A_0     C     0.1226     0.5373     0.1646
A_1     C     0.828     0.6227     0.3286
A_2     C     0.7175     0.378     0.875
A_0     C     0.0394     0.5069     0.3621
A_3     C     0.7212     0.4065     0.9652
A_1     C     0.9527     0.1107     0.9275
A_3     C     0.2637     0.7451     0.0491
A_1     C     0.0185     0.3624     0.5363
A_3     C     0.4653     0.4417     0.5788
A_1     C     0.9743     0.1417     0.9776
A_1     C     0.9593     0.1988     0.0817
A_1     C     0.0624     0.3632     0.5042
A_3     C     0.7736     0.0712     0.0797
A_1     C     0.1199     0.3362     0.8507
A_3     C     0.0978     0.9598     0.7993
A_0     C     0.3824     0.0755     0.988
A_2     C     0.6201     0.0632     0.1182
A_3     C     0.6025     0.0894     0.7564
A_1     C     0.8653     0.9817     0.5541
A_2     C     0.9098     0.0059     0.5482
A_3     C     0.7627     0.7191     0.9079
A_3     C     0.2989     0.3882     0.5146
A_1     C     0.4923     0.5936     0.8576
A_3     C     0.8359     0.4383     0.5875
A_0     C     0.2732     0.6973     0.8496
A_0     C     0.4017     0.6559     0.0411
A_2     C     0.1781     0.4443     0.7824
A_1     C     0.7788     0.3432     0.4495
A_2     C     0.8787     0.2884     0.9172
A_0     C     0.1609     0.7579     0.5343
A_1     C     0.8111     0.2466     0.698
A_0     C     0.1221     0.3667     0.9163
A_1     C     0.7212     0.5072     0.5406
A_3     C     0.6247     0.5489     0.1018
A_1     C     0.8153     0.6525     0.5588
A_0     C     0.2502     0.2569     0.3371
A_1     C     0.0366     0.3599     0.4822
A_1     C     0.8038     0.5238     0.8653
A_3     C     0.2723     0.508     0.6659
A_0     C     0.6098     0.4127     0.6691
A_1     C     0.3053     0.8419     0.6705
A_3     C     0.117     0.0182     0.4119
A_2     C     0.5859     0.4992     0.7105
A_0     C     0.1626     0.4926     0.0077
A_0     C     0.2224     0.2448     0.7579
A_3     C     0.605     0.4456     0.4518
A_3     C     0.6548     0.7346     0.6342
A_0     C     0.576     0.2797     0.6845
A_1     C     0.9447     0.1431     0.4029
A_2     C     0.1226     0.9573     0.88
A_2     C     0.3711     0.0964     0.2238
A_2     C     0.1116     0.915     0.2621
A_2     C     0.6308     0.8721     0.3368
A_0     C     0.6213     0.7396     0.2004
A_0     C     0.2492     0.2951     0.8754
A_3     C     0.6196     0.2932     0.1808
A_3     C     0.0637     0.7647     0.357
A_1     C     0.1555     0.6847     0.6703
A_3     C     0.5128     0.2868     0.5835
A_2     C     0.9335     0.5413     0.8372
A_0     C     0.029     0.581     0.3907
A_0     C     0.9923     0.4778     0.4712
A_2     C     0.3836     0.9923     0.5463
A_0     C     0.7559     0.4467     0.9954
A_0     C     0.622     0.5071     0.3285
A_2     C     0.9991     0.6088     0.5211
A_3     C     0.6399     0.2736     0.7881
A_2     C     0.4975     0.6138     0.8579
A_0     C     0.8725     0.4801     0.393
A_0     C     0.9668     0.5561     0.6623
A_1     C     0.128     0.8787     0.5243
A_1     C     0.7109     0.5454     0.4748
A_2     C     0.341     0.9911     0.2569
A_2     C     0.2342     0.6239     0.926
A_2     C     0.6173     0.0999     0.0621
A_3     C     0.6637     0.1149     0.477
A_2     C     0.2271     0.2199     0.1292
A_3     C     0.3591     0.4851     0.6888
A_1     C     0.5115     0.2221     0.2058
A_0     C     0.169     0.0983     0.2776
A_3     C     0.8796     0.8205     0.3213
A_2     C     0.3509     0.7948     0.3506
A_1     C     0.6973     0.8096     0.2387
A_1     C     0.177     0.7854     0.898
A_3     C     0.3969     0.7008     0.7458
A_1     C     0.9455     0.5264     0.3852
A_2     C     0.2131     0.9432     0.3715
A_2     C     0.9164     0.345     0.9524
A_1     C     0.0228     0.6916     0.3788
A_2     C     0.2086     0.5979     0.7854
A_0     C     0.6161     0.1305     0.3872
A_3     C     0.227     0.597     0.073
A_0     C     0.4421     0.658     0.1885
A_0     C     0.213     0.2037     0.674
A_2     C     0.7854     0.572     0.8812
A_2     C     0.803     0.0558     0.0852
A_2     C     0.4507     0.8336     0.3027
A_1     C     0.374     0.977     0.2176
A_2     C     0.6685     0.4124     0.8729
A_0     C     0.2452     0.5748     0.9015
A_3     C     0.0843     0.3639     0.1278
A_3     C     0.8325     0.648     0.7089
A_3     C     0.6366     0.4375     0.6611
A_2     C     0.1559     0.572     0.2208
A_3     C     0.1481     0.5276     0.7062
A_1     C     0.3541     0.0097     0.1401
A_1     C     0.3212     0.7993     0.087
A_0     C     0.646     0.5419     0.2913
A_0     C     0.021     0.4586     0.0433
A_2     C     0.2014     0.0682     0.0808
A_2     C     0.6134     0.903     0.5748
A_0     C     0.6102     0.5693     0.2479
A_1     C     0.7389     0.8403     0.8682
A_2     C     0.6484     0.3902     0.8591
A_1     C     0.7608     0.4551     0.9151
A_0     C     0.9596     0.7591     0.086
A_0     C     0.0792     0.8301     0.438
A_2     C     0.1943     0.7334     0.0478
A_1     C     0.0069     0.455     0.5783
A_1     C     0.7251     0.9677     0.1392
A_3     C     0.6497     0.3788     0.198
A_1     C     0.0151     0.6873     0.8865
A_1     C     0.4746     0.3973     0.3091
A_0     C     0.5991     0.4873     0.9526
A_3     C     0.3742     0.7825     0.2441
A_0     C     0.9701     0.105     0.1203
A_0     C     0.8313     0.5553     0.8776
A_0     C     0.4962     0.7955     0.5726
A_0     C     0.151     0.8591     0.0729
A_0     C     0.548     0.9002     0.1985
A_3     C     0.0346     0.4922     0.7239
A_0     C     0.9991     0.9248     0.4528
A_1     C     0.658     0.9408     0.6832
A_2     C     0.9908     0.4755     0.0856
A_0     C     0.7209     0.3396     0.7295
A_3     C     0.2856     0.7518     0.5352
A_0     C     0.4012     0.1681     0.9063
A_3     C     0.2722     0.9719     0.1092
A_0     C     0.4464     0.7987     0.5091
A_2     C     0.3139     0.0007     0.3384
A_3     C     0.9424     0.2752     0.5472
A_3     C     0.7196     0.8028     0.3476
A_3     C     0.935     0.9328     0.6498
A_1     C     0.6646     0.3504     0.1579
A_1     C     0.319     0.504     0.9822
A_0     C     0.766     0.125     0.3457
A_2     C     0.263     0.6256     0.0708
A_3     C     0.4567     0.2692     0.5688
A_3     C     0.1746     0.514     0.3127
A_1     C     0.0093     0.483     0.0857
A_3     C     0.0899     0.4643     0.905
A_0     C     0.097     0.4242     0.0285
A_0     C     0.6427     0.3149     0.5297
A_3     C     0.1234     0.029     0.1429
A_3     C     0.4224     0.27     0.3689
A_0     C     0.9155     0.272     0.13
A_3     C     0.5115     0.4338     0.2089
A_2     C     0.7962     0.3126     0.1428
A_0     C     0.3266     0.9905     0.9559
A_3     C     0.7563     0.5763     0.8249
A_3     C     0.5227     0.2728     0.1282
A_0     C     0.8147     0.1715     0.0368
A_1     C     0.8211     0.2085     0.0307
A_1     C     0.7226     0.2514     0.0446
A_0     C     0.7756     0.3088     0.8899
A_0     C     0.3113     0.5568     0.9978
A_2     C     0.142     0.7957     0.4154
A_2     C     0.1131     0.6691     0.9707
A_1     C     0.2467     0.8198     0.8197
A_1     C     0.0062     0.2282     0.2527
A_1     C     0.4558     0.6937     0.5801
A_3     C     0.9571     0.0503     0.6583
A_2     C     0.037     0.0238     0.5166
A_3     C     0.1356     0.2457     0.3139
A_3     C     0.6567     0.6734     0.7842
A_1     C     0.0615     0.435     0.1991
A_0     C     0.2628     0.0076     0.3221
A_1     C     0.9796     0.0717     0.6447
A_0     C     0.7254     0.9751     0.1919
A_0     C     0.3181     0.6802     0.5663
A_0     C     0.741     0.2187     0.4968
A_1     C     0.8117     0.9608     0.0294
A_2     C     0.2613     0.8935     0.4297
A_3     C     0.0705     0.0306     0.1982
A_0     C     0.8191     0.2077     0.2488
A_1     C     0.9445     0.5522     0.7886
A_2     C     0.6895     0.1538     0.9084
A_2     C     0.913     0.5123     0.1592
A_1     C     0.6513     0.8831     0.4314
A_2     C     0.2404     0.9261     0.9403
A_1     C     0.9294     0.9469     0.8734
A_3     C     0.8898     0.5335     0.7142
A_1     C     0.1356     0.0139     0.745
A_3     C     0.7666     0.3571     0.9261
A_0     C     0.8475     0.2812     0.4397
A_0     C     0.3671     0.9004     0.7711
A_3     C     0.4656     0.3871     0.2121
A_1     C     0.739     0.1457     0.4008
A_1     C     0.1687     0.2219     0.4298
A_2     C     0.1587     0.6281     0.4994
A_0     C     0.2393     0.1082     0.5287
A_0     C     0.2078     0.8327     0.4434
A_3     C     0.411     0.9562     0.2445
A_2     C     0.0286     0.0727     0.1775
A_3     C     0.2209     0.9122     0.2762
A_3     C     0.6284     0.9845     0.976
A_1     C     0.5562     0.4626     0.5354
A_2     C     0.6411     0.9383     0.1349
A_1     C     0.1837     0.5856     0.0003
A_3     C     0.5269     0.5399     0.4287
A_1     C     0.7216     0.4629     0.0514
A_2     C     0.0023     0.2957     0.8966
A_3     C     0.7746     0.9434     0.595
A_3     C     0.59     0.4893     0.6826
A_3     C     0.1961     0.3413     0.0757
A_2     C     0.312     0.9707     0.2998
A_1     C     0.9959     0.1069     0.5711
A_2     C     0.6743     0.4777     0.6607
A_0     C     0.4365     0.2305     0.4618
A_2     C     0.3966     0.1843     0.3442
A_2     C     0.0075     0.9629     0.8062
A_0     C     0.1535     0.7752     0.5867
A_0     C     0.2925     0.1195     0.563
A_0     C     0.06     0.98     0.5748
A_0     C     0.7807     0.5807     0.391
A_1     C     0.8377     0.4294     0.2815
A_1     C     0.8544     0.4679     0.5518
A_1     C     0.5851     0.0079     0.6344
A_0     C     0.8509     0.4585     0.8079
A_1     C     0.3769     0.5998     0.3631
A_1     C     0.0653     0.3787     0.3986
A_3     C     0.7214     0.6805     0.1197
A_0     C     0.597     0.8768     0.3211
A_0     C     0.2448     0.9882     0.8903
A_2     C     0.0732     0.8358     0.9081
A_3     C     0.243     0.2635     0.6863
A_1     C     0.4849     0.1354     0.8543
A_3     C     0.4042     0.8246     0.3605
A_3     C     0.1099     0.0757     0.1059
A_2     C     0.519     0.3869     0.9773
A_3     C     0.8148     0.3097     0.2425
A_3     C     0.2514     0.6851     0.5897
A_0     C     0.4118     0.9262     0.6364
A_2     C     0.2375     0.3806     0.6555
A_2     C     0.3542     0.0627     0.9128
A_1     C     0.0658     0.3783     0.8444
A_0     C     0.4189     0.1307     0.3883
A_2     C     0.3242     0.0889     0.5605
A_1     C     0.4383     0.5304     0.7508
A_1     C     0.1666     0.9556     0.9542
A_0     C     0.3317     0.6513     0.6455
A_0     C     0.3448     0.4554     0.1652
A_2     C     0.4548     0.3832     0.3747
A_0     C     0.9961     0.8737     0.1736
A_3     C     0.2587     0.7101     0.622
A_0     C     0.3179     0.3916     0.6503
A_3     C     0.7861     0.072     0.1071
A_2     C     0.1848     0.7684     0.9474
A_1     C     0.387     0.2611     0.6495
A_1     C     0.9551     0.3963     0.3081
A_1     C     0.8276     0.5788     0.5605
A_3     C     0.8455     0.6329     0.9443
A_1     C     0.5853     0.1398     0.0881
A_2     C     0.908     0.6301     0.4953
A_0     C     0.2088     0.6995     0.6451
A_2     C     0.8255     0.2826     0.4022
A_1     C     0.349     0.376     0.9121
A_0     C     0.2671     0.9546     0.6183
A_2     C     0.0416     0.9752     0.9856
A_2     C     0.6249     0.7562     0.7093
A_3     C     0.5399     0.0828     0.2594
A_1     C     0.5098     0.138     0.156
A_0     C     0.4285     0.4895     0.8944
A_0     C     0.6566     0.6355     0.8289
A_2     C     0.0285     0.3134     0.0304
A_1     C     0.9612     0.128     0.4225
A_3     C     0.7646     0.1733     0.1682
A_1     C     0.4163     0.9742     0.5413
A_0     C     0.0921     0.9391     0.6679
A_3     C     0.0204     0.7011     0.0897
A_2     C     0.2212     0.6506     0.8474
A_0     C     0.7188     0.7734     0.6593
A_1     C     0.4536     0.6763     0.4755
A_2     C     0.2098     0.5165     0.4222
A_3     C     0.4652     0.958     0.7396
A_0     C     0.0534     0.4002     0.1277
A_2     C     0.3543     0.0254     0.1276
A_3     C     0.4098     0.3036     0.2089
A_0     C     0.1234     0.2013     0.6324
A_1     C     0.3696     0.8094     0.7239
A_1     C     0.0644     0.0752     0.9733
A_1     C     0.5587     0.3052     0.4723
A_1     C     0.5534     0.3814     0.3638
A_0     C     0.2281     0.1921     0.9133
A_0     C     0.087     0.0164     0.1759
A_3     C     0.233     0.3271     0.8947
A_3     C     0.5307     0.089     0.6464
A_2     C     0.3885     0.9274     0.3501
A_0     C     0.0238     0.7134     0.8556
A_3     C     0.7305     0.8937     0.0176
A_2     C     0.2089     0.8829     0.8079
A_1     C     0.1224     0.5508     0.0913
A_2     C     0.066     0.4548     0.5614
A_1     C     0.7541     0.7983     0.926
A_3     C     0.0527     0.851     0.8112
A_0     C     0.4931     0.6792     0.0462
A_2     C     0.2571     0.8016     0.1251
A_0     C     0.2146     0.6219     0.3386
A_1     C     0.698     0.9788     0.3732
A_0     C     0.9069     0.0523     0.8032
A_0     C     0.6684     0.2763     0.8673
A_1     C     0.9821     0.7166     0.3269
A_3     C     0.3131     0.1618     0.1798
A_1     C     0.6696     0.8583     0.0509
A_3     C     0.0483     0.7493     0.8069
A_2     C     0.0866     0.8812     0.1047
A_3     C     0.3118     0.3626     0.1559
A_2     C     0.0028     0.1023     0.0032
A_2     C     0.9714     0.4426     0.9021
A_1     C     0.4148     0.0886     0.133
A_3     C     0.0376     0.5617     0.1839
A_3     C     0.506     0.2011     0.1981
A_3     C     0.4959     0.9457     0.513
A_2     C     0.0167     0.7293     0.2123
A_3     C     0.943     0.0056     0.4759
A_0     C     0.4661     0.3249     0.6785
A_0     C     0.8765     0.1458     0.2415
A_0     C     0.7974     0.7475     0.9157
A_1     C     0.158     0.8996     0.2216
A_0     C     0.5197     0.8253     0.7784
A_1     C     0.3904     0.125     0.901
A_2     C     0.9047     0.1752     0.4995
A_0     C     0.4851     0.1418     0.3575
A_1     C     0.207     0.2869     0.2596
A_1     C     0.9666     0.7764     0.7253
A_2     C     0.957     0.2881     0.3973
A_3     C     0.0623     0.3509     0.1445
A_1     C     0.4534     0.1084     0.2528
A_3     C     0.7892     0.4578     0.4555
A_2     C     0.3693     0.1025     0.4995
A_3     C     0.4114     0.0489     0.1462
A_1     C     0.0398     0.1626     0.5969
A_2     C     0.1402     0.6999     0.0304
A_3     C     0.1527     0.3879     0.1252
A_1     C     0.253     0.9275     0.085
A_1     C     0.8312     0.2424     0.3463
A_2     C     0.3718     0.8863     0.5913
A_0     C     0.5194     0.1236     0.787
A_3     C     0.1309     0.5602     0.3604
A_2     C     0.6091     0.9418     0.3483
A_0     C     0.8957     0.2823     0.419
A_2     C     0.9306     0.9668     0.4409
A_0     C     0.9045     0.0622     0.7639
A_2     C     0.289     0.518     0.5029
A_2     C     0.6288     0.5207     0.0637
A_0     C     0.9309     0.9694     0.2886
A_1     C     0.1705     0.8212     0.7945
A_0     C     0.1073     0.6002     0.4857
A_2     C     0.9811     0.1602     0.6937
A_0     C     0.1355     0.4838     0.7009
A_0     C     0.0443     0.3991     0.6273
A_0     C     0.0105     0.1023     0.6328
A_0     C     0.1137     0.0162     0.6753
A_2     C     0.273     0.258     0.2392
A_0     C     0.3988     0.1459     0.2261
A_1     C     0.7377     0.1927     0.9265
A_2     C     0.1814     0.7149     0.3116
A_1     C     0.075     0.2208     0.0829
A_1     C     0.2407     0.5346     0.7803
A_3     C     0.0214     0.1425     0.9213
A_0     C     0.4421     0.1917     0.0739
A_1     C     0.8988     0.9184     0.1987
A_2     C     0.9463     0.7613     0.7975
A_0     C     0.3     0.9275     0.0631
A_1     C     0.6058     0.7992     0.7626
A_0     C     0.2898     0.1671     0.0626
A_3     C     0.6251     0.5293     0.6182
A_3     C     0.5636     0.7726     0.2123
A_2     C     0.5509     0.9975     0.7301
A_0     C     0.4974     0.183     0.0934
A_2     C     0.96     0.7492     0.0702
A_2     C     0.4631     0.3164     0.2002
A_2     C     0.1833     0.9208     0.2851
A_0     C     0.6928     0.7261     0.2532
A_1     C     0.84     0.4624     0.0951
A_3     C     0.4519     0.9707     0.5715
A_3     C     0.9649     0.7914     0.7505
A_2     C     0.067     0.4829     0.4972
A_3     C     0.784     0.5497     0.2006
A_2     C     0.5164     0.7553     0.909
A_0     C     0.9403     0.2838     0.3045
A_1     C     0.2477     0.7885     0.411
A_1     C     0.7867     0.2592     0.1644
A_0     C     0.2151     0.7758     0.7949
A_0     C     0.7675     0.0952     0.4893
A_0     C     0.7215     0.8096     0.6972
A_3     C     0.2386     0.9529     0.3777
A_3     C     0.1653     0.2903     0.5859
A_2     C     0.0191     0.2128     0.8078
A_3     C     0.1595     0.7721     0.7922
A_3     C     0.2322     0.3508     0.532
A_3     C     0.6215     0.8664     0.8785
A_3     C     0.4309     0.7383     0.6024
A_0     C     0.33     0.1144     0.9675
A_0     C     0.9185     0.4676     0.5024
A_2     C     0.0963     0.4046     0.8701
A_3     C     0.8537     0.9515     0.4015
A_2     C     0.3708     0.0701     0.6899
A_1     C     0.4744     0.8759     0.648
A_0     C     0.7003     0.1678     0.2161
A_3     C     0.1093     0.2327     0.3989
A_0     C     0.4908     0.0598     0.4063
A_2     C     0.5936     0.5505     0.2333
A_2     C     0.83     0.7963     0.4284
A_0     C     0.4745     0.8     0.0511
A_1     C     0.907     0.8269     0.479
A_3     C     0.5349     0.6718     0.7595
A_3     C     0.0514     0.1576     0.5794
A_1     C     0.1579     0.3379     0.3516
A_3     C     0.2907     0.8949     0.5763
A_1     C     0.645     0.9543     0.8155
A_1     C     0.9043     0.7604     0.8656
A_3     C     0.6619     0.6834     0.197
A_3     C     0.0615     0.7653     0.2558
A_2     C     0.7717     0.4132     0.5493
A_1     C     0.0158     0.4883     0.2006
A_0     C     0.7071     0.7942     0.2509
A_3     C     0.2462     0.3727     0.0133
A_1     C     0.5608     0.2012     0.138
A_1     C     0.9357     0.5038     0.7852
A_2     C     0.1314     0.9779     0.7128
A_3     C     0.6025     0.6613     0.2944
A_0     C     0.2543     0.4055     0.5502
A_2     C     0.0178     0.5623     0.8896
A_0     C     0.5279     0.1498     0.6304
A_0     C     0.3481     0.595     0.437
A_0     C     0.4781     0.1846     0.2624
A_3     C     0.7432     0.5219     0.5715
A_1     C     0.488     0.9131     0.6626
A_2     C     0.3905     0.4469     0.7297
A_1     C     0.9401     0.8348     0.2227
A_3     C     0.4984     0.0851     0.2936
A_2     C     0.9213     0.404     0.116
A_2     C     0.3943     0.625     0.6923
A_3     C     0.5442     0.2563     0.0384
A_3     C     0.7419     0.6776     0.9537
A_3     C     0.9618     0.3291     0.857
A_2     C     0.4313     0.4741     0.8322
A_3     C     0.3476     0.2475     0.2204
A_1     C     0.7026     0.7579     0.828
A_3     C     0.1536     0.0709     0.4311
A_3     C     0.9272     0.5523     0.0831
A_1     C     0.7239     0.0761     0.2155
A_0     C     0.3885     0.4951     0.8317
A_2     C     0.3335     0.4548     0.9194
A_1     C     0.9595     0.4291     0.5034
A_1     C     0.5859     0.999     0.7099
A_2     C     0.8855     0.2656     0.3697
A_0     C     0.4604     0.0047     0.4308
A_0     C     0.4331     0.2707     0.4492
A_0     C     0.3927     0.508     0.9261
A_1     C     0.2853     0.7549     0.5869
A_2     C     0.9062     0.4072     0.836
A_1     C     0.6904     0.0806     0.8386
A_1     C     0.0589     0.3919     0.0381
A_3     C     0.0132     0.1287     0.4243
A_0     C     0.3649     0.2878     0.7652
A_1     C     0.7509     0.0699     0.0266
A_0     C     0.4398     0.6136     0.6331
A_1     C     0.6761     0.6904     0.4806
A_3     C     0.6321     0.0022     0.9991
A_2     C     0.9198     0.3193     0.8841
A_1     C     0.5472     0.5655     0.7549
A_2     C     0.7656     0.7914     0.998
A_2     C     0.2624     0.0001     0.447
A_1     C     0.4186     0.4162     0.3376
A_1     C     0.5951     0.4716     0.9134
A_1     C     0.2354     0.6711     0.7189
A_0     C     0.4366     0.3786     0.4787
A_3     C     0.5522     0.557     0.1763
A_1     C     0.8528     0.0934     0.8903
A_2     C     0.2933     0.318     0.7114
A_3     C     0.5451     0.4163     0.8379
A_2     C     0.334     0.0251     0.9414
A_3     C     0.2937     0.3628     0.9265
A_3     C     0.396     0.9949     0.8213
A_3     C     0.7437     0.8209     0.0155
A_0     C     0.9728     0.5219     0.9175
A_1     C     0.844     0.6092     0.6423
A_0     C     0.8479     0.8966     0.5155
A_1     C     0.3288     0.3654     0.2236
A_1     C     0.9341     0.6806     0.2119
A_3     C     0.0544     0.1201     0.8635
A_0     C     0.1464     0.6678     0.6355
A_3     C     0.0852     0.5217     0.1004
A_0     C     0.1981     0.9162     0.0751
A_2     C     0.6706     0.5164     0.0304
A_2     C     0.8185     0.8236     0.3524
A_0     C     0.7372     0.0349     0.3424
A_0     C     0.9202     0.0225     0.0528
A_3     C     0.1486     0.1251     0.0174
A_1     C     0.4441     0.8647     0.97
A_2     C     0.7928     0.336     0.6558
A_0     C     0.4317     0.9245     0.6379
A_0     C     0.4989     0.5375     0.3749
A_2     C     0.8508     0.4526     0.9425
A_1     C     0.8831     0.0322     0.3842
A_3     C     0.3719     0.8905     0.8369
A_2     C     0.6651     0.5782     0.3455
A_1     C     0.4199     0.1857     0.998
A_3     C     0.6098     0.4834     0.5891
A_1     C     0.0067     0.6937     0.0711
A_0     C     0.2282     0.4558     0.8238
A_3     C     0.9892     0.4095     0.6074
A_2     C     0.5568     0.9286     0.8636
A_1     C     0.2604     0.4514     0.6351
A_2     C     0.6858     0.6157     0.0989
A_2     C     0.0235     0.7496     0.4919
A_1     C     0.4035     0.6035     0.4616
A_1     C     0.4514     0.0043     0.6237
A_3     C     0.8931     0.7267     0.035
A_2     C     0.8465     0.071     0.6978
A_0     C     0.9686     0.3431     0.5461
A_2     C     0.1617     0.2808     0.8662
A_2     C     0.2726     0.8347     0.4269
A_1     C     0.5636     0.5978     0.4529
A_3     C     0.3363     0.2395     0.7355
A_0     C     0.1991     0.8086     0.3864
A_2     C     0.261     0.2878     0.6018
A_0     C     0.6829     0.6202     0.8347
A_1     C     0.2708     0.7502     0.6886
A_0     C     0.7588     0.5632     0.6659
A_2     C     0.9787     0.3631     0.5817
A_3     C     0.3906     0.2451     0.7135
A_1     C     0.5749     0.8706     0.3908
A_0     C     0.5533     0.3955     0.5877
A_2     C     0.1928     0.2927     0.4908
A_2     C     0.2551     0.2971     0.6639
A_2     C     0.4438     0.4923     0.4034
A_1     C     0.4065     0.3269     0.1594
A_2     C     0.3927     0.5585     0.7308
A_0     C     0.5902     0.8376     0.3834
A_2     C     0.576     0.1755     0.4087
