MAT-6

loop_
_symmetry_equiv_pos_as_xyz
  x,y,z
_cell_length_a          34.5841
_cell_length_b          45.164
_cell_length_c          40.1504
_cell_angle_alpha       90.0000
_cell_angle_beta        90.0000
_cell_angle_gamma       90.0000
loop_
_atom_site_label
_atom_site_type_symbol
_atom_site_fract_x
_atom_site_fract_y
_atom_site_fract_z
A_2     C     0.8557     0.617     0.7638
A_1     C     0.4962     0.9048     0.7042
A_2     C     0.9919     0.3291     0.4861
A_3     C     0.1173     0.5411     0.8148
A_2     C     0.9402     0.9941     0.9457
A_3     C     0.8351     0.2394     0.2475
A_1     C     0.2548     0.5637     0.1174
A_2     C     0.0292     0.719     0.5847
A_0     C     0.7776     0.4651     0.6725
A_3     C     0.4984     0.1262     0.9369
A_1     C     0.1723     0.4026     0.9289
A_2     C     0.4361     0.6344     0.3384
A_2     C     0.1919     0.8548     0.6836
A_0     C     0.3906     0.9129     0.3694
A_0     C     0.3203     0.8509     0.3734
A_1     C     0.1829     0.7562     0.8455
A_2     C     0.3462     0.8003     0.864
A_3     C     0.3753     0.1851     0.9379
A_1     C     0.6883     0.9767     0.4298
A_2     C     0.8394     0.1351     0.905
A_0     C     0.6941     0.6087     0.8526
A_1     C     0.2616     0.6739     0.8137
A_0     C     0.5506     0.6268     0.1062
A_1     C     0.4897     0.8863     0.9711
A_2     C     0.6345     0.372     0.4548
A_0     C     0.8605     0.7625     0.8996
A_3     C     0.6886     0.1771     0.5472
A_0     C     0.973     0.2733     0.7023
A_1     C     0.3788     0.3235     0.4558
A_3     C     0.4473     0.8005     0.5147
A_1     C     0.2786     0.9457     0.4506
A_1     C     0.6589     0.1138     0.7137
A_2     C     0.2422     0.6403     0.3064
A_1     C     0.9245     0.9168     0.0128
A_1     C     0.0594     0.032     0.8722
A_1     C     0.6516     0.6498     0.9491
A_1     C     0.7318     0.6214     0.9581
A_1     C     0.4038     0.3862     0.0949
A_1     C     0.3465     0.9122     0.8455
A_2     C     0.6136     0.241     0.7688
A_1     C     0.5307     0.3182     0.8132
A_3     C     0.8906     0.0202     0.4077
A_2     C     0.3537     0.9376     0.2806
A_1     C     0.6295     0.9132     0.3589
A_2     C     0.6437     0.1182     0.3796
A_0     C     0.3935     0.3033     0.989
A_0     C     0.8271     0.2325     0.3285
A_1     C     0.3397     0.8819     0.0921
A_2     C     0.8222     0.6813     0.3608
A_0     C     0.3832     0.2713     0.089
A_0     C     0.94     0.7887     0.398
A_1     C     0.2846     0.7898     0.0532
A_1     C     0.1379     0.5039     0.9394
A_3     C     0.8799     0.764     0.3622
A_0     C     0.1232     0.934     0.826
A_0     C     0.4004     0.151     0.39
A_0     C     0.051     0.3732     0.6735
A_1     C     0.086     0.8468     0.8541
A_3     C     0.2744     0.8072     0.0476
A_3     C     0.8612     0.7029     0.9891
A_0     C     0.1166     0.2371     0.0416
A_1     C     0.0212     0.4912     0.3484
A_2     C     0.6927     0.3342     0.5244
A_1     C     0.984     0.4123     0.4571
A_2     C     0.3929     0.3103     0.2533
A_3     C     0.42     0.0671     0.3207
A_3     C     0.3994     0.8716     0.9357
A_1     C     0.5114     0.2752     0.0105
A_3     C     0.9468     0.7464     0.7611
A_1     C     0.997     0.0635     0.071
A_0     C     0.245     0.7535     0.3366
A_0     C     0.2366     0.6978     0.8664
A_0     C     0.5004     0.5259     0.1162
A_3     C     0.387     0.1802     0.8282
A_2     C     0.6064     0.4766     0.0581
A_2     C     0.6879     0.2256     0.5342
A_3     C     0.4322     0.3573     0.7943
A_2     C     0.5364     0.6778     0.7972
A_3     C     0.2643     0.2538     0.8683
A_0     C     0.7559     0.7595     0.3032
A_2     C     0.4585     0.7592     0.6001
A_0     C     0.1568     0.3443     0.4904
A_1     C     0.0224     0.5563     0.8881
A_0     C     0.7417     0.3805     0.0231
A_2     C     0.4118     0.1718     0.4009
A_2     C     0.9695     0.0463     0.366
A_2     C     0.5299     0.2063     0.9325
A_0     C     0.9056     0.2454     0.3432
A_2     C     0.6213     0.4736     0.0532
A_3     C     0.8862     0.113     0.6552
A_2     C     0.914     0.3269     0.2299
A_1     C     0.448     0.9326     0.276
A_0     C     0.03     0.9462     0.5608
A_1     C     0.6215     0.2577     0.1928
A_1     C     0.0376     0.3254     0.6545
A_0     C     0.3831     0.6568     0.2842
A_1     C     0.9445     0.21     0.4243
A_2     C     0.8694     0.2963     0.0899
A_1     C     0.7985     0.6223     0.154
A_1     C     0.5342     0.7838     0.5548
A_1     C     0.5343     0.9164     0.381
A_3     C     0.3412     0.5337     0.891
A_2     C     0.7143     0.9558     0.1008
A_0     C     0.6691     0.151     0.9842
A_1     C     0.0058     0.6867     0.3821
A_3     C     0.7094     0.9283     0.3423
A_0     C     0.3886     0.1565     0.1561
A_0     C     0.7657     0.8509     0.2175
A_2     C     0.6085     0.5246     0.6326
A_2     C     0.5677     0.9386     0.6103
A_3     C     0.1761     0.0004     0.4472
A_2     C     0.6018     0.2491     0.517
A_1     C     0.9356     0.247     0.4773
A_0     C     0.8921     0.0411     0.6721
A_2     C     0.7158     0.8761     0.0548
A_1     C     0.6795     0.4436     0.182
A_0     C     0.5167     0.7118     0.267
A_2     C     0.9292     0.3413     0.917
A_3     C     0.1114     0.7351     0.7402
A_3     C     0.1622     0.4292     0.167
A_1     C     0.6882     0.0329     0.1663
A_3     C     0.072     0.5567     0.2477
A_0     C     0.3118     0.8699     0.3428
A_0     C     0.6279     0.0502     0.3791
A_2     C     0.6768     0.8134     0.5883
A_2     C     0.4127     0.5921     0.1734
A_0     C     0.983     0.3644     0.3502
A_0     C     0.1905     0.6235     0.8307
A_3     C     0.2453     0.5353     0.2137
A_3     C     0.0374     0.6661     0.5048
A_0     C     0.9299     0.2594     0.2268
A_2     C     0.9144     0.6222     0.6418
A_0     C     0.6448     0.272     0.3266
A_1     C     0.5673     0.2721     0.6391
A_0     C     0.0249     0.4816     0.2113
A_2     C     0.8498     0.5838     0.2157
A_0     C     0.2874     0.4907     0.3616
A_3     C     0.7392     0.8686     0.1934
A_1     C     0.9428     0.721     0.5806
A_0     C     0.1968     0.044     0.9556
A_0     C     0.7526     0.9425     0.8531
A_3     C     0.8883     0.1466     0.379
A_1     C     0.1902     0.5484     0.5957
A_1     C     0.0787     0.8015     0.4474
A_2     C     0.3693     0.0778     0.9465
A_2     C     0.3011     0.7778     0.4608
A_0     C     0.8158     0.7526     0.6975
A_3     C     0.0771     0.0678     0.6065
A_0     C     0.5552     0.316     0.769
A_0     C     0.6427     0.5867     0.0088
A_0     C     0.1693     0.5513     0.4258
A_0     C     0.5279     0.4307     0.1784
A_0     C     0.921     0.4497     0.4717
A_2     C     0.9317     0.5416     0.1848
A_2     C     0.9063     0.6997     0.4164
A_2     C     0.8152     0.0099     0.906
A_3     C     0.4815     0.5252     0.5127
A_1     C     0.8418     0.3644     0.4631
A_2     C     0.0966     0.1938     0.1431
A_1     C     0.6818     0.472     0.1898
A_0     C     0.2383     0.893     0.071
A_3     C     0.9733     0.8844     0.2814
A_2     C     0.0005     0.135     0.5714
A_0     C     0.0434     0.8331     0.487
A_0     C     0.1701     0.2971     0.5956
A_1     C     0.0219     0.5111     0.622
A_2     C     0.5727     0.8782     0.3613
A_0     C     0.4875     0.0938     0.1286
A_1     C     0.9568     0.8185     0.8599
A_1     C     0.7662     0.1655     0.8507
A_0     C     0.0109     0.5622     0.5137
A_0     C     0.9816     0.1561     0.2248
A_1     C     0.4696     0.1721     0.7205
A_1     C     0.6949     0.0669     0.8107
A_1     C     0.5431     0.6632     0.3794
A_2     C     0.8018     0.5686     0.29
A_0     C     0.1491     0.5834     0.858
A_1     C     0.5134     0.9903     0.2566
A_3     C     0.1616     0.6091     0.6221
A_0     C     0.4439     0.856     0.3732
A_1     C     0.8093     0.4629     0.2904
A_1     C     0.9396     0.7836     0.2702
A_0     C     0.6467     0.9352     0.4157
A_2     C     0.5596     0.2822     0.6242
A_1     C     0.0692     0.2631     0.8357
A_1     C     0.3923     0.3413     0.2469
A_3     C     0.5408     0.303     0.9891
A_3     C     0.9012     0.284     0.8652
A_2     C     0.2516     0.9955     0.7777
A_1     C     0.6596     0.0918     0.315
A_2     C     0.4237     0.74     0.0902
A_1     C     0.2013     0.8013     0.3088
A_3     C     0.9802     0.5786     0.7349
A_3     C     0.1645     0.6978     0.3097
A_3     C     0.1752     0.4614     0.6892
A_1     C     0.2755     0.0207     0.7369
A_1     C     0.3406     0.073     0.7022
A_0     C     0.6793     0.9631     0.6199
A_3     C     0.0427     0.8545     0.7938
A_1     C     0.4524     0.8135     0.4624
A_3     C     0.133     0.4808     0.5629
A_2     C     0.1929     0.1386     0.1865
A_2     C     0.2799     0.1396     0.1913
A_2     C     0.4368     0.1091     0.9771
A_1     C     0.9094     0.8655     0.4675
A_0     C     0.2838     0.8757     0.1964
A_0     C     0.9716     0.8354     0.5289
A_2     C     0.9336     0.8098     0.7327
A_3     C     0.8021     0.5544     0.2977
A_0     C     0.6744     0.4566     0.5277
A_3     C     0.1468     0.0808     0.1636
A_3     C     0.2777     0.5178     0.0291
A_3     C     0.1243     0.315     0.1412
A_0     C     0.4004     0.6157     0.7394
A_1     C     0.2698     0.6443     0.8471
A_1     C     0.8031     0.5821     0.9469
A_0     C     0.609     0.1055     0.2852
A_0     C     0.6677     0.4412     0.6025
A_1     C     0.5122     0.6574     0.8039
A_2     C     0.2235     0.4301     0.4498
A_0     C     0.9011     0.7018     0.0962
A_0     C     0.3911     0.4437     0.0653
A_1     C     0.7239     0.6941     0.617
A_1     C     0.4131     0.012     0.0511
A_0     C     0.7701     0.1307     0.9599
A_1     C     0.0606     0.7425     0.6273
A_3     C     0.2165     0.6624     0.9081
A_3     C     0.8307     0.2619     0.7322
A_1     C     0.5164     0.1143     0.9356
A_2     C     0.0547     0.1244     0.1085
A_3     C     0.3565     0.6964     0.627
A_2     C     0.4855     0.5195     0.5576
A_2     C     0.3767     0.8364     0.1782
A_3     C     0.7006     0.3525     0.1677
A_1     C     0.7817     0.7435     0.6595
A_0     C     0.9616     0.562     0.8791
A_0     C     0.5893     0.7462     0.2805
A_2     C     0.9892     0.89     0.745
A_3     C     0.0592     0.3648     0.0557
A_0     C     0.1567     0.3331     0.4911
A_2     C     0.3391     0.7077     0.691
A_2     C     0.4621     0.0723     0.6587
A_0     C     0.0829     0.0935     0.7077
A_2     C     0.3715     0.7034     0.3506
A_1     C     0.7942     0.6664     0.7833
A_3     C     0.5291     0.8872     0.0696
A_2     C     0.4096     0.7275     0.1213
A_3     C     0.5764     0.0475     0.6615
A_0     C     0.4922     0.9838     0.3591
A_3     C     0.1992     0.6461     0.9506
A_2     C     0.5225     0.1662     0.0245
A_2     C     0.8093     0.2649     0.6555
A_1     C     0.1003     0.8765     0.5441
A_1     C     0.8767     0.5138     0.764
A_2     C     0.9149     0.892     0.0506
A_0     C     0.9439     0.5139     0.8343
A_2     C     0.2938     0.8466     0.9603
A_3     C     0.7406     0.8418     0.017
A_3     C     0.45     0.5867     0.1946
A_2     C     0.8553     0.1178     0.6795
A_1     C     0.1827     0.8764     0.0878
A_1     C     0.8201     0.4405     0.4989
A_3     C     0.1245     0.7371     0.2642
A_0     C     0.0042     0.1119     0.8046
A_1     C     0.1559     0.6214     0.4131
A_1     C     0.6125     0.897     0.8675
A_3     C     0.941     0.9471     0.0007
A_2     C     0.8918     0.5478     0.6263
A_3     C     0.288     0.356     0.3215
A_2     C     0.0293     0.7148     0.1656
A_3     C     0.9058     0.2868     0.1754
A_3     C     0.4308     0.6717     0.7946
A_1     C     0.8932     0.191     0.317
A_2     C     0.2891     0.8058     0.4683
A_3     C     0.3113     0.1396     0.9272
A_1     C     0.9374     0.1152     0.6332
A_3     C     0.2316     0.3659     0.1652
A_0     C     0.6652     0.3762     0.5849
A_3     C     0.2888     0.5622     0.2282
A_0     C     0.2809     0.0019     0.9965
A_1     C     0.9847     0.3465     0.7958
A_1     C     0.0184     0.5453     0.4573
A_3     C     0.6554     0.739     0.7336
A_1     C     0.4174     0.0277     0.4796
A_2     C     0.6138     0.4054     0.8044
A_1     C     0.5997     0.7286     0.4285
A_3     C     0.9407     0.3478     0.2527
A_2     C     0.9036     0.2718     0.7784
A_2     C     0.6053     0.7851     0.2056
A_0     C     0.1659     0.1442     0.0089
A_2     C     0.5423     0.6892     0.7186
A_0     C     0.736     0.4194     0.5021
A_0     C     0.706     0.8307     0.2973
A_1     C     0.11     0.9054     0.2927
A_1     C     0.2264     0.5056     0.8033
A_2     C     0.0195     0.4858     0.3031
A_3     C     0.7819     0.3436     0.2476
A_2     C     0.2959     0.118     0.9235
A_3     C     0.8335     0.6907     0.847
A_3     C     0.345     0.215     0.8282
A_1     C     0.3479     0.0978     0.7571
A_3     C     0.1616     0.3738     0.0556
A_0     C     0.7029     0.6503     0.2336
A_2     C     0.1124     0.3099     0.0158
A_0     C     0.1659     0.9969     0.6664
A_0     C     0.0341     0.6051     0.7534
A_3     C     0.8071     0.7119     0.3983
A_0     C     0.5297     0.0118     0.1216
A_1     C     0.9005     0.1627     0.0209
A_1     C     0.2228     0.0157     0.1016
A_2     C     0.8792     0.66     0.1523
A_2     C     0.9073     0.4361     0.3064
A_0     C     0.5128     0.364     0.8506
A_1     C     0.3557     0.7983     0.676
A_3     C     0.2231     0.0187     0.7318
A_0     C     0.9837     0.988     0.7337
A_3     C     0.2101     0.8813     0.7151
A_3     C     0.4835     0.0617     0.3657
A_1     C     0.2527     0.8968     0.2997
A_2     C     0.8734     0.3668     0.551
A_0     C     0.6371     0.304     0.9651
A_2     C     0.8256     0.4366     0.1312
A_3     C     0.8894     0.5495     0.0843
A_1     C     0.4473     0.6569     0.5872
A_1     C     0.7674     0.3783     0.729
A_1     C     0.0899     0.998     0.5516
A_0     C     0.0738     0.3723     0.436
A_3     C     0.769     0.0182     0.3775
A_3     C     0.4523     0.0574     0.0572
A_1     C     0.7826     0.2656     0.9441
A_1     C     0.9932     0.132     0.1478
A_1     C     0.8953     0.279     0.1327
A_2     C     0.5999     0.6721     0.1582
A_2     C     0.5482     0.9478     0.2551
A_0     C     0.8311     0.1973     0.9553
A_1     C     0.3638     0.063     0.6572
A_2     C     0.3964     0.0812     0.9821
A_3     C     0.4724     0.2268     0.861
A_3     C     0.8429     0.3979     0.1064
A_2     C     0.0136     0.8596     0.4617
A_1     C     0.462     0.4503     0.5898
A_2     C     0.5142     0.8487     0.1752
A_0     C     0.8647     0.985     0.1838
A_2     C     0.2112     0.9493     0.7885
A_3     C     0.3814     0.7092     0.787
A_2     C     0.8638     0.8007     0.7223
A_1     C     0.1611     0.8393     0.3302
A_2     C     0.3288     0.7009     0.4021
A_1     C     0.3305     0.68     0.184
A_3     C     0.5201     0.952     0.4403
A_0     C     0.7415     0.6737     0.1949
A_3     C     0.1103     0.5098     0.0338
A_3     C     0.4761     0.0806     0.1218
A_0     C     0.8357     0.7697     0.2568
A_1     C     0.3954     0.8776     0.4993
A_3     C     0.5993     0.852     0.1442
A_3     C     0.4823     0.3752     0.1869
A_3     C     0.3652     0.2595     0.3454
A_2     C     0.1364     0.6344     0.466
A_0     C     0.4199     0.633     0.0093
A_3     C     0.4259     0.9029     0.506
A_3     C     0.9826     0.7033     0.8768
A_1     C     0.6945     0.9335     0.3422
A_1     C     0.8758     0.4545     0.4342
A_3     C     0.278     0.4483     0.084
A_2     C     0.9066     0.4913     0.5796
A_0     C     0.8249     0.836     0.292
A_3     C     0.9158     0.9623     0.7885
A_1     C     0.1259     0.8213     0.31
A_3     C     0.4746     0.3466     0.6127
A_3     C     0.9051     0.1888     0.3275
A_1     C     0.5483     0.7615     0.2284
A_1     C     0.6237     0.229     0.2291
A_0     C     0.5472     0.143     0.5445
A_3     C     0.7427     0.25     0.6197
A_1     C     0.319     0.2428     0.4341
A_0     C     0.3212     0.8954     0.5074
A_0     C     0.469     0.9552     0.024
A_2     C     0.3497     0.3261     0.3298
A_1     C     0.8413     0.8983     0.1375
A_0     C     0.5479     0.1003     0.1658
A_1     C     0.3183     0.9746     0.82
A_1     C     0.49     0.6243     0.5141
A_1     C     0.304     0.8222     0.0164
A_2     C     0.078     0.1719     0.2786
A_1     C     0.3648     0.1164     0.9213
A_3     C     0.8603     0.7112     0.2595
A_0     C     0.6677     0.1376     0.116
A_1     C     0.2993     0.2737     0.9544
A_3     C     0.4659     0.9736     0.5432
A_0     C     0.4603     0.8183     0.7391
A_2     C     0.9588     0.8985     0.6427
A_2     C     0.4273     0.6955     0.1335
A_1     C     0.9264     0.4507     0.0266
A_2     C     0.2591     0.0271     0.3339
A_3     C     0.8448     0.1822     0.4429
A_0     C     0.5679     0.4392     0.1758
A_3     C     0.8585     0.9078     0.4542
A_0     C     0.7707     0.7847     0.9529
A_0     C     0.7194     0.9879     0.7913
A_0     C     0.019     0.1556     0.5382
A_3     C     0.0825     0.6915     0.6366
A_3     C     0.6441     0.5392     0.1444
A_2     C     0.98     0.2916     0.396
A_1     C     0.7614     0.2734     0.4933
A_0     C     0.5464     0.9358     0.9142
A_0     C     0.5381     0.4987     0.9679
A_0     C     0.0032     0.7687     0.5115
A_3     C     0.1239     0.6686     0.26
A_3     C     0.4463     0.9148     0.0056
A_3     C     0.6579     0.4326     0.5763
A_0     C     0.6296     0.4781     0.2996
A_1     C     0.414     0.3726     0.0756
A_2     C     0.3111     0.59     0.5574
A_2     C     0.608     0.3622     0.4513
A_1     C     0.5982     0.1826     0.1256
A_3     C     0.0478     0.7807     0.2988
A_0     C     0.2028     0.8706     0.8359
A_1     C     0.2148     0.9316     0.3593
A_3     C     0.7217     0.8582     0.1324
A_2     C     0.4984     0.8575     0.967
A_1     C     0.781     0.0336     0.8376
A_2     C     0.5608     0.4227     0.9082
A_2     C     0.7604     0.3967     0.6802
A_0     C     0.7929     0.8867     0.0683
A_0     C     0.6025     0.2892     0.8492
A_2     C     0.3436     0.5517     0.5032
A_1     C     0.3005     0.8972     0.7571
A_3     C     0.1453     0.9368     0.5847
A_3     C     0.8843     0.4771     0.8602
A_2     C     0.4061     0.6422     0.3893
A_2     C     0.9455     0.2086     0.7125
A_2     C     0.7787     0.9864     0.086
A_2     C     0.5042     0.2328     0.9047
A_2     C     0.2655     0.8833     0.9071
A_3     C     0.1019     0.4293     0.8988
A_2     C     0.4684     0.0421     0.6773
A_0     C     0.0414     0.825     0.1457
A_0     C     0.4524     0.1276     0.8617
A_1     C     0.1228     0.9032     0.4294
A_1     C     0.3403     0.0342     0.9438
A_2     C     0.9418     0.1381     0.0851
A_0     C     0.3527     0.4767     0.505
A_2     C     0.0873     0.1966     0.6449
A_0     C     0.8605     0.7687     0.1844
A_2     C     0.3363     0.0386     0.4791
A_3     C     0.3097     0.2344     0.0703
A_1     C     0.9728     0.0382     0.7224
A_2     C     0.4601     0.9213     0.7916
A_1     C     0.0936     0.9266     0.0699
A_3     C     0.216     0.4902     0.37
A_3     C     0.3676     0.9042     0.731
A_2     C     0.1545     0.9751     0.1622
A_0     C     0.4407     0.2115     0.8739
A_2     C     0.5792     0.4101     0.9597
A_3     C     0.5213     0.5782     0.6261
A_2     C     0.9416     0.344     0.0822
A_2     C     0.5498     0.4326     0.2726
A_3     C     0.5867     0.95     0.6554
A_3     C     0.0378     0.6826     0.1041
A_0     C     0.6398     0.7833     0.9405
A_1     C     0.2317     0.7096     0.4428
A_1     C     0.2629     0.4082     0.4625
A_1     C     0.0122     0.9294     0.3302
A_2     C     0.2538     0.9528     0.1076
A_1     C     0.74     0.4471     0.0536
A_0     C     0.0633     0.1991     0.3403
A_2     C     0.1393     0.7581     0.26
A_2     C     0.3153     0.5327     0.8742
A_2     C     0.5439     0.7931     0.5658
A_0     C     0.6256     0.3211     0.8535
A_1     C     0.7049     0.0567     0.5886
A_3     C     0.6033     0.4027     0.8541
A_2     C     0.4794     0.806     0.3779
A_3     C     0.7909     0.7796     0.6845
A_2     C     0.7214     0.3227     0.7238
A_0     C     0.5262     0.1274     0.1337
A_0     C     0.4986     0.8554     0.9812
A_0     C     0.2327     0.4085     0.8994
A_3     C     0.7174     0.7304     0.2522
A_2     C     0.5806     0.8168     0.0845
A_1     C     0.6731     0.6801     0.1211
A_2     C     0.089     0.1047     0.7213
A_0     C     0.6964     0.4931     0.7153
A_0     C     0.2689     0.979     0.8772
A_3     C     0.0304     0.4715     0.3329
A_2     C     0.2937     0.1222     0.5695
A_0     C     0.0261     0.5524     0.9584
A_1     C     0.2066     0.3638     0.5766
A_0     C     0.6295     0.6824     0.904
A_3     C     0.8122     0.7188     0.4832
A_1     C     0.6615     0.0673     0.9669
A_2     C     0.2585     0.4467     0.2449
A_3     C     0.7547     0.4478     0.412
A_0     C     0.5843     0.0144     0.8526
A_1     C     0.9339     0.5099     0.1199
A_0     C     0.9009     0.3924     0.3606
A_2     C     0.4723     0.6431     0.78
A_1     C     0.2695     0.5938     0.14
A_2     C     0.2155     0.0984     0.983
A_1     C     0.6485     0.4329     0.7229
A_1     C     0.3513     0.108     0.0078
A_0     C     0.1329     0.6246     0.0786
A_1     C     0.1963     0.5999     0.2576
A_3     C     0.0097     0.3346     0.7902
A_0     C     0.0765     0.1923     0.0912
A_1     C     0.7034     0.3975     0.154
A_3     C     0.9756     0.9015     0.8836
A_2     C     0.17     0.366     0.9261
A_0     C     0.3568     0.5332     0.7507
A_3     C     0.2831     0.3144     0.9304
A_0     C     0.3443     0.0102     0.7514
A_3     C     0.4695     0.074     0.8839
A_0     C     0.9069     0.8366     0.4516
A_2     C     0.3683     0.1612     0.7611
A_3     C     0.7084     0.2688     0.082
A_0     C     0.2766     0.2781     0.9788
A_0     C     0.6981     0.2283     0.8952
A_3     C     0.1692     0.8096     0.291
A_0     C     0.4955     0.5891     0.5149
A_2     C     0.6255     0.7289     0.1551
A_2     C     0.3247     0.5709     0.1644
A_0     C     0.27     0.9101     0.1881
A_3     C     0.9601     0.5822     0.1439
A_2     C     0.078     0.7919     0.3552
A_0     C     0.3069     0.2821     0.7643
A_2     C     0.8255     0.6931     0.1113
A_3     C     0.5663     0.1784     0.8672
A_3     C     0.5361     0.7754     0.5702
A_3     C     0.9093     0.7375     0.3982
A_1     C     0.6921     0.6523     0.3401
A_0     C     0.6902     0.5694     0.4799
A_1     C     0.2784     0.5062     0.0491
A_3     C     0.0266     0.2871     0.701
A_3     C     0.1633     0.6594     0.7296
A_1     C     0.7908     0.8937     0.1303
A_3     C     0.8851     0.5603     0.0315
A_2     C     0.833     0.436     0.4724
A_0     C     0.9051     0.5072     0.0792
A_1     C     0.3824     0.0169     0.9579
A_2     C     0.3928     0.8544     0.9926
A_1     C     0.1506     0.0021     0.0943
A_1     C     0.4665     0.719     0.2594
A_3     C     0.0711     0.7979     0.131
A_0     C     0.4198     0.76     0.2009
A_2     C     0.2673     0.6245     0.6495
A_2     C     0.3514     0.2504     0.0392
A_0     C     0.7078     0.0667     0.0087
A_2     C     0.8627     0.8043     0.8838
A_0     C     0.0589     0.5428     0.3647
A_1     C     0.3725     0.0161     0.8578
A_1     C     0.024     0.2394     0.6304
A_3     C     0.5971     0.4322     0.1313
A_0     C     0.1206     0.9034     0.7317
A_1     C     0.6565     0.2228     0.8336
A_3     C     0.583     0.3985     0.6942
A_1     C     0.007     0.9518     0.8775
A_2     C     0.9468     0.9239     0.936
A_1     C     0.6926     0.9763     0.779
A_1     C     0.3366     0.454     0.3602
A_3     C     0.9941     0.6266     0.9101
A_0     C     0.152     0.5014     0.9332
A_2     C     0.7632     0.1497     0.0795
A_1     C     0.3635     0.4956     0.7497
A_0     C     0.1742     0.5109     0.1645
A_1     C     0.8903     0.209     0.5986
A_0     C     0.5473     0.8203     0.6942
A_2     C     0.1693     0.4612     0.8502
A_1     C     0.4736     0.0604     0.3429
A_1     C     0.6119     0.8368     0.1265
A_0     C     0.6115     0.9167     0.8003
A_0     C     0.0076     0.7122     0.2486
A_2     C     0.2056     0.3406     0.0227
A_3     C     0.7867     0.305     0.4351
A_2     C     0.6547     0.1143     0.7335
A_1     C     0.9518     0.5257     0.3925
A_1     C     0.1813     0.1191     0.9874
A_0     C     0.1399     0.3312     0.7199
A_0     C     0.3157     0.9358     0.4229
A_0     C     0.2214     0.8814     0.6957
A_3     C     0.5917     0.4484     0.9215
A_3     C     0.6068     0.4117     0.3194
A_0     C     0.2875     0.006     0.8398
A_1     C     0.1709     0.8794     0.1841
A_1     C     0.7451     0.2046     0.1356
A_0     C     0.5556     0.3986     0.8052
A_1     C     0.9698     0.066     0.4118
A_0     C     0.7244     0.8834     0.089
A_2     C     0.9469     0.3077     0.4289
A_1     C     0.9558     0.1884     0.4015
A_0     C     0.2576     0.0484     0.5101
A_1     C     0.8078     0.4737     0.7749
A_0     C     0.0202     0.0472     0.0243
A_2     C     0.5374     0.7088     0.1009
A_2     C     0.7235     0.4045     0.0668
A_3     C     0.0413     0.4667     0.6306
A_2     C     0.2953     0.3853     0.408
A_1     C     0.046     0.9571     0.2346
A_0     C     0.4744     0.2664     0.1237
A_1     C     0.4614     0.3441     0.0994
A_2     C     0.3449     0.5916     0.5087
A_1     C     0.1241     0.59     0.2935
A_3     C     0.8765     0.3095     0.1017
A_2     C     0.5337     0.0531     0.4714
A_3     C     0.3669     0.6904     0.9753
A_3     C     0.6451     0.2937     0.8385
A_1     C     0.9932     0.3241     0.943
A_0     C     0.9496     0.9572     0.8355
A_3     C     0.2732     0.937     0.6984
A_3     C     0.8624     0.7845     0.0251
A_1     C     0.3038     0.8685     0.7385
A_2     C     0.5995     0.553     0.5939
A_3     C     0.7545     0.3466     0.4822
A_2     C     0.0601     0.755     0.0954
A_3     C     0.3569     0.6933     0.3296
A_0     C     0.427     0.0735     0.1584
A_2     C     0.576     0.6519     0.5413
A_2     C     0.3098     0.1976     0.141
A_0     C     0.8328     0.8873     0.7808
A_0     C     0.7421     0.0783     0.6842
A_2     C     0.9497     0.2568     0.4518
A_3     C     0.2378     0.5656     0.4587
A_2     C     0.4327     0.9842     0.1294
A_0     C     0.1644     0.0178     0.099
A_2     C     0.9657     0.9465     0.7723
A_3     C     0.1184     0.5946     0.0348
A_2     C     0.6554     0.7854     0.3633
A_3     C     0.0415     0.0301     0.9579
A_2     C     0.641     0.5656     0.1082
A_1     C     0.6238     0.7545     0.9974
A_2     C     0.6887     0.5314     0.1667
A_3     C     0.5524     0.5991     0.976
A_3     C     0.8077     0.051     0.2025
A_2     C     0.0977     0.1154     0.218
A_0     C     0.8534     0.8942     0.7235
A_1     C     0.814     0.3936     0.2528
A_0     C     0.3613     0.411     0.0571
A_1     C     0.2057     0.8881     0.8988
A_2     C     0.5802     0.3574     0.7702
A_2     C     0.3188     0.1462     0.4125
A_3     C     0.7877     0.6505     0.4528
A_1     C     0.8323     0.2409     0.6689
A_0     C     0.3166     0.6251     0.1378
A_2     C     0.9618     0.2087     0.6725
A_3     C     0.1103     0.2596     0.8111
A_2     C     0.9419     0.2788     0.8724
A_2     C     0.5787     0.6621     0.9757
A_3     C     0.7436     0.6402     0.4799
A_1     C     0.4155     0.1986     0.5515
A_2     C     0.6042     0.2908     0.0063
A_2     C     0.46     0.7782     0.1811
A_1     C     0.3582     0.3016     0.8208
A_3     C     0.2319     0.9034     0.5791
A_2     C     0.3833     0.7116     0.5506
A_2     C     0.4478     0.9497     0.8759
A_2     C     0.8332     0.2722     0.8738
A_2     C     0.5023     0.9864     0.9906
A_2     C     0.7909     0.5881     0.8416
A_1     C     0.0013     0.0892     0.3697
A_1     C     0.5869     0.4048     0.23
A_0     C     0.4177     0.3031     0.7641
A_1     C     0.9898     0.9905     0.3387
A_3     C     0.5939     0.9237     0.6438
A_1     C     0.5626     0.9766     0.3737
A_2     C     0.4328     0.6193     0.1866
A_2     C     0.1358     0.6994     0.5943
A_1     C     0.5201     0.4736     0.4021
A_0     C     0.6279     0.8298     0.5843
A_3     C     0.0915     0.9049     0.4811
A_0     C     0.595     0.3614     0.5918
A_0     C     0.9742     0.447     0.8986
A_0     C     0.3081     0.0241     0.5288
A_0     C     0.4427     0.4763     0.2595
A_0     C     0.2818     0.2924     0.1295
A_2     C     0.3238     0.6975     0.0246
A_1     C     0.5666     0.8321     0.0029
A_1     C     0.6843     0.8638     0.3464
A_1     C     0.6708     0.7117     0.8167
A_1     C     0.8238     0.1268     0.9278
A_3     C     0.8238     0.6152     0.1139
A_1     C     0.0081     0.0214     0.9743
A_1     C     0.6482     0.4589     0.3063
A_2     C     0.2388     0.1241     0.9085
A_1     C     0.5418     0.0528     0.3814
A_0     C     0.5382     0.4201     0.5438
A_3     C     0.7564     0.3731     0.1005
A_2     C     0.2272     0.4921     0.6893
A_2     C     0.6792     0.2219     0.7904
A_2     C     0.3745     0.3724     0.3603
A_0     C     0.8728     0.6463     0.5709
A_2     C     0.9491     0.8217     0.1702
A_3     C     0.2105     0.6436     0.1115
A_3     C     0.8117     0.4768     0.9303
A_1     C     0.6398     0.3585     0.1086
A_1     C     0.433     0.8146     0.8283
A_3     C     0.1325     0.8975     0.3279
A_1     C     0.5339     0.3705     0.0285
A_2     C     0.6104     0.3092     0.0549
A_3     C     0.5111     0.5986     0.0916
A_1     C     0.0216     0.1022     0.7167
A_2     C     0.7852     0.5894     0.6748
A_0     C     0.4036     0.1848     0.4251
A_2     C     0.7903     0.4018     0.5933
A_2     C     0.8577     0.61     0.7201
A_1     C     0.7375     0.7997     0.0238
A_3     C     0.5489     0.0418     0.7889
A_1     C     0.0712     0.5861     0.8239
A_0     C     0.4348     0.9481     0.7894
A_1     C     0.1237     0.3288     0.2858
A_3     C     0.1399     0.2525     0.2557
A_2     C     0.8089     0.5173     0.1258
A_2     C     0.852     0.5702     0.4949
A_2     C     0.6514     0.2699     0.9409
A_1     C     0.2781     0.6218     0.7029
A_3     C     0.8227     0.2456     0.0565
A_1     C     0.6139     0.2989     0.2894
A_3     C     0.0965     0.2722     0.7109
A_1     C     0.5877     0.4411     0.0506
A_3     C     0.6567     0.9548     0.6755
A_1     C     0.1611     0.2747     0.5229
A_3     C     0.7025     0.9443     0.688
A_0     C     0.5048     0.8168     0.3351
A_2     C     0.8603     0.6696     0.8039
A_1     C     0.476     0.1609     0.0455
A_3     C     0.6972     0.4308     0.0925
A_0     C     0.2201     0.411     0.7527
A_1     C     0.8673     0.0472     0.1655
A_3     C     0.9182     0.2025     0.7995
A_3     C     0.3242     0.2226     0.4945
A_0     C     0.3433     0.704     0.1025
A_2     C     0.1083     0.5046     0.9893
A_3     C     0.0035     0.8994     0.9777
A_1     C     0.7819     0.0113     0.749
A_0     C     0.5452     0.9727     0.4477
A_2     C     0.2599     0.0257     0.2227
A_3     C     0.5475     0.9198     0.8193
A_2     C     0.2469     0.9476     0.2244
A_3     C     0.8974     0.4292     0.5624
A_2     C     0.7181     0.004     0.3987
A_0     C     0.6306     0.1771     0.3687
A_0     C     0.456     0.8847     0.1058
A_1     C     0.0714     0.1304     0.4531
A_0     C     0.9283     0.7653     0.8562
A_2     C     0.5873     0.5925     0.0917
A_2     C     0.056     0.6779     0.0676
A_0     C     0.2594     0.0818     0.8515
A_2     C     0.4066     0.5714     0.4104
A_1     C     0.2494     0.1477     0.1678
A_3     C     0.2851     0.0417     0.1781
A_2     C     0.1826     0.1181     0.1503
A_0     C     0.9619     0.4827     0.8298
A_0     C     0.0288     0.3045     0.7377
A_2     C     0.0354     0.8709     0.7755
A_0     C     0.1724     0.0246     0.6162
A_2     C     0.893     0.4628     0.1903
A_1     C     0.6064     0.8998     0.5386
A_3     C     0.1047     0.6345     0.7967
A_0     C     0.4598     0.6893     0.0945
A_1     C     0.2695     0.4828     0.1609
A_1     C     0.6181     0.0339     0.8949
A_0     C     0.1387     0.7266     0.6112
A_1     C     0.431     0.5329     0.4125
A_1     C     0.5657     0.7693     0.6632
A_0     C     0.0798     0.7563     0.7236
A_2     C     0.8639     0.3914     0.9221
A_1     C     0.2254     0.5092     0.0128
A_3     C     0.3322     0.6728     0.1876
A_3     C     0.8235     0.0034     0.0444
A_3     C     0.5367     0.2366     0.8426
A_0     C     0.8111     0.2425     0.4538
A_3     C     0.0475     0.597     0.347
A_0     C     0.6579     0.8094     0.2613
A_0     C     0.9629     0.9672     0.035
A_2     C     0.2643     0.554     0.9372
A_3     C     0.221     0.2928     0.2883
A_2     C     0.541     0.9762     0.4817
A_3     C     0.1859     0.8569     0.9471
A_2     C     0.3105     0.3929     0.7372
A_3     C     0.2618     0.5269     0.4952
A_1     C     0.1973     0.3798     0.9999
A_1     C     0.9741     0.5568     0.826
A_2     C     0.3672     0.1518     0.8916
A_2     C     0.2136     0.9515     0.5199
A_2     C     0.1032     0.7261     0.1408
A_0     C     0.7392     0.9246     0.5316
A_0     C     0.8022     0.2401     0.2755
A_1     C     0.0988     0.3361     0.2548
A_3     C     0.4086     0.8519     0.121
A_3     C     0.9768     0.0101     0.3364
A_2     C     0.2343     0.8187     0.6421
A_1     C     0.3939     0.2116     0.9725
A_3     C     0.3123     0.5867     0.7876
A_1     C     0.0503     0.1335     0.7542
A_1     C     0.5534     0.3356     0.1391
A_2     C     0.423     0.5137     0.0523
A_2     C     0.2997     0.4057     0.1506
A_0     C     0.4522     0.9854     0.4814
A_3     C     0.7657     0.1616     0.6959
A_3     C     0.7989     0.8358     0.8089
A_3     C     0.9846     0.0943     0.1254
A_1     C     0.9647     0.0886     0.3026
A_3     C     0.2793     0.3821     0.6723
A_2     C     0.3092     0.7689     0.399
A_3     C     0.365     0.12     0.0435
A_2     C     0.824     0.4118     0.4241
A_1     C     0.7125     0.2524     0.9841
A_2     C     0.87     0.6879     0.1278
A_3     C     0.2883     0.6542     0.9832
A_0     C     0.0345     0.9044     0.6611
A_1     C     0.7219     0.7693     0.3387
A_0     C     0.5948     0.6203     0.2168
A_0     C     0.3849     0.9784     0.712
A_3     C     0.8554     0.5843     0.1919
A_3     C     0.994     0.9556     0.5448
A_1     C     0.5655     0.5192     0.2135
A_2     C     0.4404     0.8208     0.9939
A_0     C     0.4499     0.3639     0.1896
A_2     C     0.4871     0.6793     0.0983
A_2     C     0.0144     0.7544     0.1546
A_2     C     0.5787     0.3726     0.6437
A_1     C     0.2757     0.3135     0.1024
A_3     C     0.6085     0.1165     0.68
A_1     C     0.1656     0.7433     0.8545
A_0     C     0.3072     0.738     0.1004
A_3     C     0.2126     0.5905     0.848
A_1     C     0.6773     0.2541     0.0764
A_3     C     0.1508     0.1528     0.9909
A_0     C     0.4969     0.7857     0.9934
A_3     C     0.8474     0.5479     0.9126
A_1     C     0.3209     0.3255     0.1993
A_2     C     0.8557     0.8642     0.08
A_3     C     0.3129     0.8856     0.4542
A_1     C     0.1981     0.1964     0.6263
A_1     C     0.2656     0.1899     0.9813
A_3     C     0.9507     0.7521     0.6983
A_3     C     0.6077     0.184     0.8053
A_0     C     0.7969     0.8071     0.6311
A_1     C     0.4027     0.3542     0.121
A_2     C     0.7626     0.5826     0.4721
A_3     C     0.5731     0.2891     0.8393
A_0     C     0.5441     0.3885     0.4401
A_0     C     0.1493     0.1715     0.3902
A_3     C     0.5927     0.296     0.5563
A_0     C     0.81     0.8361     0.4786
A_2     C     0.3444     0.5602     0.3898
A_0     C     0.3721     0.0563     0.1222
A_2     C     0.8099     0.7498     0.9196
A_0     C     0.8527     0.0891     0.473
A_3     C     0.9562     0.9299     0.9424
A_2     C     0.9644     0.7785     0.2009
A_3     C     0.4436     0.5001     0.5806
A_3     C     0.9591     0.5276     0.0349
A_2     C     0.9416     0.9954     0.4399
A_1     C     0.8493     0.6699     0.0278
A_0     C     0.1089     0.6286     0.0677
A_3     C     0.8892     0.3443     0.9565
A_0     C     0.6403     0.5386     0.9745
A_2     C     0.8101     0.6771     0.2892
A_0     C     0.4002     0.8056     0.4819
A_1     C     0.9274     0.8828     0.5872
A_3     C     0.7699     0.324     0.2146
A_2     C     0.3226     0.4198     0.2928
A_2     C     0.2176     0.5289     0.4911
A_0     C     0.5167     0.7455     0.724
A_2     C     0.937     0.2616     0.2405
A_3     C     0.2218     0.9326     0.3463
A_1     C     0.5389     0.4731     0.0966
A_0     C     0.7551     0.2536     0.6264
A_0     C     0.8632     0.4114     0.8404
A_1     C     0.4481     0.8998     0.7292
A_3     C     0.7356     0.3771     0.1014
A_0     C     0.2581     0.2067     0.4031
A_2     C     0.6764     0.0037     0.2447
A_0     C     0.0195     0.038     0.419
A_2     C     0.2446     0.7193     0.8219
A_1     C     0.4908     0.332     0.5872
A_0     C     0.3097     0.8939     0.3992
A_1     C     0.8649     0.8679     0.1814
A_2     C     0.8385     0.7801     0.4711
A_1     C     0.0069     0.5722     0.5418
A_1     C     0.1118     0.8563     0.526
A_1     C     0.1292     0.6801     0.1205
A_2     C     0.4401     0.2212     0.3511
A_3     C     0.4933     0.2887     0.2024
A_3     C     0.9184     0.6965     0.2241
A_0     C     0.6797     0.6862     0.1198
A_0     C     0.6126     0.3258     0.3124
A_3     C     0.3002     0.0918     0.3118
A_1     C     0.7743     0.1681     0.6912
A_3     C     0.7025     0.1811     0.6701
A_0     C     0.5541     0.5479     0.4366
A_3     C     0.7629     0.5236     0.9373
A_1     C     0.773     0.0575     0.2444
A_2     C     0.4402     0.6177     0.3629
A_1     C     0.739     0.5066     0.3406
A_2     C     0.9194     0.3322     0.3416
A_2     C     0.8422     0.1765     0.642
A_2     C     0.7178     0.1845     0.4936
A_2     C     0.1337     0.5792     0.3675
A_1     C     0.9896     0.7976     0.909
A_3     C     0.833     0.3919     0.4592
A_2     C     0.01     0.5603     0.6477
A_2     C     0.0419     0.0218     0.7443
A_0     C     0.7417     0.6999     0.8415
A_1     C     0.6729     0.5891     0.8799
A_3     C     0.5539     0.9929     0.2783
A_3     C     0.8921     0.8492     0.2317
A_0     C     0.9958     0.7917     0.0233
A_3     C     0.1373     0.2785     0.5108
A_0     C     0.6034     0.2504     0.9135
A_0     C     0.8925     0.7406     0.418
A_2     C     0.0527     0.8554     0.071
A_1     C     0.6712     0.9645     0.0495
A_0     C     0.8601     0.3099     0.927
A_0     C     0.9111     0.259     0.906
A_0     C     0.2397     0.5628     0.2596
A_2     C     0.2858     0.4066     0.3282
A_0     C     0.2064     0.5427     0.8172
A_0     C     0.988     0.3259     0.4994
A_0     C     0.5615     0.3037     0.5625
A_0     C     0.9302     0.5588     0.9497
A_0     C     0.2827     0.2269     0.8069
A_2     C     0.8623     0.075     0.1254
A_1     C     0.4948     0.055     0.07
A_2     C     0.142     0.3759     0.4173
A_0     C     0.018     0.9228     0.9025
A_0     C     0.1396     0.1904     0.1656
A_2     C     0.0014     0.064     0.2467
A_3     C     0.725     0.718     0.6095
A_3     C     0.4721     0.8913     0.1893
A_0     C     0.7714     0.6967     0.7877
A_3     C     0.1993     0.8889     0.0307
A_0     C     0.293     0.6921     0.752
A_1     C     0.5039     0.7413     0.1084
A_1     C     0.0808     0.3966     0.7342
A_1     C     0.45     0.9108     0.5263
A_1     C     0.0578     0.1393     0.0258
A_3     C     0.292     0.3223     0.0765
A_2     C     0.8435     0.4816     0.1186
A_0     C     0.3758     0.0333     0.224
A_2     C     0.7287     0.6763     0.9172
A_1     C     0.8076     0.5409     0.8578
A_2     C     0.1876     0.7316     0.2013
A_3     C     0.0422     0.8497     0.8116
A_1     C     0.9847     0.9064     0.3146
A_2     C     0.4809     0.0616     0.8171
A_0     C     0.6355     0.2099     0.1414
A_2     C     0.1414     0.9909     0.4611
A_1     C     0.0666     0.0028     0.319
A_0     C     0.6197     0.9271     0.9796
A_0     C     0.8362     0.1181     0.3135
A_0     C     0.3541     0.4545     0.1823
A_3     C     0.033     0.5606     0.7688
A_2     C     0.2535     0.3171     0.4087
A_0     C     0.611     0.6764     0.9575
A_3     C     0.1891     0.4171     0.0769
A_1     C     0.1761     0.4963     0.8938
A_1     C     0.6063     0.3201     0.3265
A_0     C     0.8331     0.2271     0.4554
A_2     C     0.7354     0.7623     0.1063
A_0     C     0.1309     0.3006     0.4934
A_3     C     0.1985     0.7491     0.6739
A_1     C     0.9389     0.4511     0.501
A_3     C     0.5974     0.7032     0.9341
A_3     C     0.7527     0.6189     0.463
A_0     C     0.5156     0.1099     0.5309
A_1     C     0.6926     0.6663     0.2016
A_1     C     0.6494     0.1853     0.7266
A_1     C     0.0779     0.1983     0.566
A_3     C     0.0622     0.8495     0.8085
A_3     C     0.6162     0.4497     0.1249
A_3     C     0.7485     0.6732     0.5652
A_0     C     0.5577     0.2096     0.7207
A_1     C     0.4025     0.4754     0.1144
A_2     C     0.4235     0.4007     0.4233
A_0     C     0.1339     0.0536     0.2888
A_2     C     0.9143     0.2564     0.0389
A_1     C     0.8226     0.2797     0.1748
A_0     C     0.205     0.7093     0.7807
A_2     C     0.696     0.9334     0.0109
A_2     C     0.1216     0.3485     0.7728
A_2     C     0.8243     0.5067     0.799
A_2     C     0.4388     0.2698     0.079
A_2     C     0.8456     0.5758     0.2092
A_2     C     0.5537     0.701     0.6969
A_1     C     0.1663     0.9027     0.0539
A_1     C     0.0708     0.8681     0.8064
A_1     C     0.5818     0.3217     0.6443
A_1     C     0.3213     0.6149     0.0042
A_1     C     0.2773     0.3986     0.1263
A_0     C     0.6548     0.3956     0.0845
A_0     C     0.3843     0.9656     0.229
A_0     C     0.329     0.5754     0.7813
A_1     C     0.6701     0.8096     0.0378
A_3     C     0.3384     0.2353     0.2549
A_2     C     0.9295     0.7244     0.1873
A_1     C     0.4666     0.2379     0.0681
A_3     C     0.3124     0.8649     0.2525
A_1     C     0.7062     0.913     0.0093
A_1     C     0.9376     0.3046     0.2858
A_3     C     0.1776     0.1638     0.7532
A_2     C     0.8626     0.0253     0.0133
A_3     C     0.3623     0.7901     0.3449
A_0     C     0.0913     0.102     0.7315
A_3     C     0.2737     0.9601     0.9222
A_2     C     0.5052     0.8312     0.031
A_0     C     0.8362     0.0607     0.3353
A_0     C     0.7773     0.6432     0.1647
A_3     C     0.3505     0.5951     0.4884
A_2     C     0.0561     0.6531     0.6777
A_3     C     0.5664     0.9121     0.5203
A_3     C     0.0598     0.0897     0.2876
A_2     C     0.4147     0.6983     0.3859
A_0     C     0.597     0.3127     0.1644
A_2     C     0.6     0.9792     0.6096
A_0     C     0.06     0.9807     0.0306
A_0     C     0.3137     0.1373     0.0398
A_3     C     0.837     0.2799     0.3462
A_2     C     0.201     0.2644     0.8419
A_0     C     0.6196     0.4616     0.3352
A_0     C     0.2713     0.8669     0.3591
A_3     C     0.7225     0.8776     0.9517
A_2     C     0.9443     0.1316     0.3956
A_0     C     0.3772     0.9874     0.0382
A_2     C     0.4826     0.2858     0.3132
A_1     C     0.4299     0.2812     0.2185
A_1     C     0.1935     0.719     0.825
A_1     C     0.4128     0.0875     0.729
A_1     C     0.1779     0.3449     0.932
A_0     C     0.3051     0.278     0.224
A_0     C     0.5986     0.8435     0.7294
A_1     C     0.8136     0.3155     0.7582
A_0     C     0.5978     0.2957     0.356
A_3     C     0.3097     0.4565     0.0679
A_2     C     0.7114     0.712     0.149
A_1     C     0.1575     0.6173     0.1345
A_1     C     0.538     0.2013     0.7261
A_0     C     0.5239     0.3269     0.9972
A_0     C     0.7915     0.497     0.6463
A_3     C     0.1706     0.9256     0.7523
A_3     C     0.1776     0.3978     0.4191
A_3     C     0.9664     0.3798     0.144
A_1     C     0.846     0.4784     0.3622
A_2     C     0.1084     0.3625     0.0901
A_2     C     0.8776     0.3763     0.9445
A_1     C     0.4674     0.2899     0.6344
A_1     C     0.1534     0.3213     0.759
A_3     C     0.804     0.0315     0.6744
A_3     C     0.0239     0.2641     0.4283
A_3     C     0.1583     0.9325     0.0766
A_3     C     0.0587     0.3932     0.0279
A_0     C     0.6955     0.3198     0.8543
A_2     C     0.5346     0.3097     0.5684
A_1     C     0.9863     0.0918     0.5925
A_0     C     0.6011     0.3849     0.9188
A_3     C     0.7386     0.5973     0.7396
A_1     C     0.3575     0.1984     0.982
A_1     C     0.6104     0.8611     0.7734
A_1     C     0.6052     0.4709     0.4471
A_0     C     0.0934     0.8488     0.8779
A_1     C     0.5177     0.5677     0.2215
A_0     C     0.5462     0.0337     0.8066
A_1     C     0.1804     0.4933     0.4277
A_3     C     0.5607     0.4592     0.499
A_2     C     0.5097     0.5733     0.3852
A_3     C     0.9216     0.1114     0.9048
A_3     C     0.6214     0.1814     0.4442
A_2     C     0.771     0.4587     0.4427
A_2     C     0.5196     0.5497     0.6808
A_1     C     0.22     0.1376     0.9815
A_2     C     0.5989     0.2446     0.6549
A_0     C     0.3005     0.0879     0.2298
A_2     C     0.2509     0.7447     0.6322
A_3     C     0.2328     0.8361     0.5275
A_1     C     0.9559     0.5222     0.283
A_0     C     0.4163     0.0632     0.2784
A_2     C     0.6991     0.3688     0.2199
A_1     C     0.7502     0.7887     0.7917
A_3     C     0.872     0.6887     0.575
A_2     C     0.5262     0.1024     0.3016
A_0     C     0.5757     0.9398     0.6527
A_2     C     0.59     0.9621     0.5894
A_0     C     0.2164     0.2359     0.4096
A_1     C     0.871     0.4402     0.1275
A_1     C     0.8206     0.597     0.2658
A_3     C     0.3647     0.3358     0.446
A_2     C     0.5282     0.5462     0.0727
A_2     C     0.0018     0.0903     0.0097
A_0     C     0.9823     0.1702     0.468
A_2     C     0.4007     0.7799     0.4732
A_0     C     0.4503     0.1838     0.4821
A_2     C     0.2971     0.4143     0.5935
A_1     C     0.9407     0.5823     0.9835
A_0     C     0.4322     0.2726     0.0141
A_3     C     0.7961     0.5585     0.7516
A_3     C     0.6693     0.5294     0.9845
A_1     C     0.1039     0.0487     0.7336
A_1     C     0.7927     0.2051     0.3546
A_3     C     0.867     0.0047     0.545
A_0     C     0.7627     0.871     0.955
A_2     C     0.4394     0.6026     0.8775
A_1     C     0.3043     0.854     0.0884
A_0     C     0.9282     0.9619     0.524
A_1     C     0.7319     0.1403     0.7616
A_2     C     0.4252     0.3093     0.3688
A_3     C     0.3832     0.8604     0.3669
A_0     C     0.0242     0.1122     0.2626
A_3     C     0.5685     0.0467     0.4356
A_1     C     0.4525     0.3195     0.2384
A_0     C     0.3827     0.2086     0.7566
A_2     C     0.7501     0.6253     0.7181
A_0     C     0.1038     0.8854     0.358
A_2     C     0.2192     0.9988     0.0616
A_1     C     0.0877     0.8712     0.1901
A_2     C     0.318     0.2662     0.0885
A_0     C     0.1092     0.3221     0.8191
A_1     C     0.861     0.6246     0.071
A_0     C     0.8473     0.3559     0.6124
A_2     C     0.3315     0.1042     0.2545
A_2     C     0.4722     0.8349     0.6617
A_2     C     0.1496     0.2914     0.649
A_2     C     0.936     0.2669     0.0588
A_3     C     0.3221     0.4904     0.9362
A_3     C     0.3256     0.4446     0.6538
A_2     C     0.3213     0.0794     0.2799
A_0     C     0.9236     0.5184     0.4086
A_0     C     0.2057     0.8318     0.6028
A_3     C     0.2455     0.6128     0.5333
A_1     C     0.7281     0.4983     0.0224
A_2     C     0.0602     0.9202     0.8843
A_1     C     0.696     0.6798     0.8894
A_1     C     0.2781     0.7605     0.1949
A_0     C     0.6798     0.2353     0.6832
A_0     C     0.8803     0.3565     0.7284
A_2     C     0.2465     0.2168     0.7236
A_3     C     0.9671     0.5754     0.7246
A_2     C     0.1673     0.4702     0.0988
A_2     C     0.6606     0.9709     0.4987
A_1     C     0.0884     0.7521     0.7066
A_1     C     0.469     0.6657     0.9698
A_0     C     0.9137     0.6808     0.4981
A_0     C     0.6776     0.873     0.373
A_0     C     0.2845     0.0132     0.7397
A_0     C     0.2834     0.4708     0.1713
A_2     C     0.6604     0.6149     0.5
A_3     C     0.3736     0.02     0.8491
A_2     C     0.5027     0.3089     0.0041
A_2     C     0.2153     0.3096     0.3141
A_0     C     0.1585     0.9281     0.9468
A_1     C     0.7998     0.7165     0.7009
A_0     C     0.6121     0.1918     0.3337
A_0     C     0.6954     0.5506     0.7494
A_3     C     0.0171     0.4317     0.4718
A_3     C     0.0204     0.8997     0.6626
A_3     C     0.805     0.0719     0.3951
A_2     C     0.3111     0.4147     0.3994
A_1     C     0.8144     0.3876     0.7309
A_3     C     0.1611     0.7446     0.6747
A_2     C     0.3129     0.0841     0.6605
A_0     C     0.1132     0.5338     0.6995
A_0     C     0.66     0.0521     0.508
A_2     C     0.1027     0.1011     0.6594
A_2     C     0.8187     0.5119     0.365
A_1     C     0.3539     0.9565     0.7965
A_2     C     0.0907     0.8214     0.0824
A_1     C     0.5467     0.2911     0.6084
A_0     C     0.3651     0.1471     0.4257
A_0     C     0.1096     0.2946     0.7681
A_1     C     0.6566     0.2949     0.8318
A_2     C     0.7188     0.3317     0.9973
A_3     C     0.9564     0.5718     0.9149
A_0     C     0.2617     0.1535     0.1048
A_2     C     0.1181     0.118     0.6109
A_0     C     0.4007     0.4255     0.9163
A_3     C     0.5488     0.2039     0.9445
A_3     C     0.9467     0.7295     0.0135
A_2     C     0.065     0.4649     0.7198
A_3     C     0.9141     0.4545     0.2283
A_1     C     0.2564     0.3022     0.2084
A_2     C     0.9236     0.6716     0.1659
A_0     C     0.8743     0.3084     0.0289
A_0     C     0.9169     0.3732     0.4291
A_2     C     0.8122     0.661     0.3431
A_1     C     0.6343     0.0257     0.595
A_0     C     0.1775     0.5857     0.8963
A_1     C     0.2676     0.702     0.5046
A_2     C     0.9832     0.6332     0.2233
A_0     C     0.046     0.3333     0.6097
A_2     C     0.3451     0.6153     0.8741
A_1     C     0.5943     0.3505     0.2409
A_1     C     0.2372     0.7609     0.8835
A_1     C     0.419     0.583     0.0939
A_0     C     0.9237     0.9056     0.8991
A_0     C     0.4763     0.0106     0.1371
A_0     C     0.1852     0.129     0.7689
A_2     C     0.0023     0.932     0.8035
A_0     C     0.1979     0.7115     0.4345
A_1     C     0.3534     0.0098     0.0935
A_0     C     0.989     0.5237     0.809
A_1     C     0.7515     0.742     0.3874
A_1     C     0.1775     0.6582     0.4851
A_2     C     0.6085     0.9798     0.3291
A_1     C     0.681     0.3762     0.6593
A_0     C     0.4584     0.7618     0.8927
A_1     C     0.8787     0.5583     0.1995
A_1     C     0.0563     0.4099     0.424
A_0     C     0.539     0.686     0.4459
A_1     C     0.5924     0.8007     0.7808
A_1     C     0.4963     0.3584     0.3732
A_0     C     0.0334     0.6891     0.0326
A_2     C     0.5404     0.1451     0.8401
A_3     C     0.8337     0.9832     0.033
A_0     C     0.8138     0.5625     0.9096
A_0     C     0.8067     0.4563     0.5423
A_3     C     0.7618     0.031     0.9958
A_1     C     0.2589     0.8574     0.5003
A_3     C     0.4502     1.0     0.5664
A_2     C     0.1574     0.768     0.0581
A_1     C     0.3659     0.8332     0.9511
A_1     C     0.7463     0.9029     0.4587
A_3     C     0.2609     0.8201     0.1017
A_2     C     0.8275     0.8101     0.3133
A_3     C     0.3919     0.8555     0.1386
A_3     C     0.9135     0.0255     0.338
A_1     C     0.0528     0.6989     0.2565
A_3     C     0.5512     0.1354     0.5013
A_2     C     0.4062     0.4231     0.3528
A_1     C     0.6001     0.0725     0.0195
A_2     C     0.4323     0.2935     0.1914
A_1     C     0.9609     0.0546     0.5312
A_2     C     0.5597     0.8432     0.3091
A_0     C     0.1565     0.1249     0.1886
A_1     C     0.8144     0.3249     0.0303
A_2     C     0.4607     0.456     0.8457
A_1     C     0.708     0.7038     0.8388
A_0     C     0.8816     0.9611     0.9584
A_0     C     0.542     0.0426     0.1987
A_1     C     0.7103     0.5545     0.8994
A_0     C     0.8607     0.9627     0.372
A_3     C     0.3241     0.0982     0.1154
A_2     C     0.693     0.7409     0.5269
A_0     C     0.5516     0.9256     0.9727
A_0     C     0.4409     0.9348     0.6174
A_2     C     0.9693     0.8217     0.3631
A_2     C     0.9269     0.1633     0.2534
A_2     C     0.3789     0.4614     0.0452
A_1     C     0.5234     0.1095     0.7988
A_1     C     0.5962     0.7588     0.8206
A_2     C     0.5991     0.1767     0.2711
A_0     C     0.6673     0.47     0.7502
A_1     C     0.4575     0.5226     0.0621
A_1     C     0.0679     0.141     0.3595
A_2     C     0.2641     0.0676     0.5467
A_3     C     0.0698     0.2504     0.2812
A_3     C     0.2034     0.262     0.6799
A_0     C     0.9373     0.2651     0.6891
A_3     C     0.9659     0.0312     0.1435
A_3     C     0.6577     0.0468     0.9185
A_0     C     0.9879     0.3128     0.3731
A_1     C     0.6773     0.6684     0.1213
A_2     C     0.4099     0.543     0.548
A_2     C     0.4556     0.2253     0.0594
A_1     C     0.8824     0.096     0.5172
A_0     C     0.6622     0.9013     0.3165
A_1     C     0.6829     0.4925     0.0293
A_3     C     0.9765     0.2728     0.1683
A_0     C     0.1336     0.6274     0.6872
A_0     C     0.1591     0.738     0.2875
A_1     C     0.6449     0.7732     0.0008
A_2     C     0.3576     0.4402     0.3109
A_1     C     0.3039     0.1251     0.3497
A_2     C     0.6568     0.6912     0.124
A_1     C     0.8389     0.0509     0.6848
A_3     C     0.7905     0.2117     0.19
A_2     C     0.7939     0.7822     0.1665
A_3     C     0.8416     0.4608     0.5591
A_3     C     0.7077     0.7367     0.5811
A_3     C     0.2153     0.2862     0.442
A_3     C     0.3789     0.9907     0.5633
A_2     C     0.0245     0.324     0.8774
A_3     C     0.436     0.1436     0.0148
A_2     C     0.3066     0.4661     0.9007
A_3     C     0.2188     0.4419     0.7203
A_2     C     0.3099     0.8518     0.2501
A_0     C     0.4175     0.5614     0.9235
A_3     C     0.0482     0.9222     0.1015
A_2     C     0.5465     0.0165     0.6009
A_0     C     0.8504     0.0453     0.4662
A_0     C     0.2277     0.3625     0.7587
A_3     C     0.8563     0.9702     0.397
A_0     C     0.7103     0.2372     0.381
A_3     C     0.6178     0.503     0.4181
A_0     C     0.904     0.7515     0.0315
A_1     C     0.012     0.7976     0.5737
A_2     C     0.9949     0.985     0.2719
A_0     C     0.6161     0.7009     0.0848
A_1     C     0.6668     0.3297     0.6034
A_0     C     0.5838     0.3132     0.7749
A_1     C     0.232     0.2096     0.1261
A_3     C     0.4486     0.7701     0.7396
A_3     C     0.814     0.9802     0.0668
A_2     C     0.8105     0.9719     0.9526
A_2     C     0.0831     0.4155     0.0191
A_0     C     0.5831     0.357     0.188
A_0     C     0.9673     0.9946     0.0056
A_2     C     0.3895     0.5214     0.5781
A_1     C     0.6012     0.6006     0.0148
A_3     C     0.1939     0.3279     0.2815
A_0     C     0.9227     0.8427     0.2325
A_2     C     0.8014     0.3155     0.002
A_3     C     0.8872     0.5401     0.2178
A_0     C     0.7906     0.1564     0.9663
A_2     C     0.3403     0.3013     0.5818
A_2     C     0.3229     0.8778     0.2584
A_0     C     0.8072     0.6239     0.3723
A_1     C     0.2419     0.5729     0.2228
A_2     C     0.803     0.2185     0.3246
A_2     C     0.1327     0.6597     0.0668
A_3     C     0.6954     0.7678     0.237
A_3     C     0.6093     0.5399     0.8015
A_1     C     0.9429     0.3518     0.1475
A_0     C     0.1923     0.3386     0.1488
A_2     C     0.9108     0.8174     0.0864
A_3     C     0.694     0.7189     0.5668
A_1     C     0.1229     0.4576     0.4736
A_3     C     0.29     0.7555     0.7012
A_0     C     0.3593     0.8969     0.6546
A_0     C     0.3383     0.5965     0.3696
A_1     C     0.1854     0.2359     0.907
A_3     C     0.7138     0.9333     0.7668
A_2     C     0.6664     0.4272     0.0116
A_3     C     0.3739     0.0843     0.6742
A_1     C     0.8053     0.0447     0.7848
A_1     C     0.346     0.5173     0.163
A_2     C     0.9641     0.333     0.4334
A_0     C     0.131     0.4626     0.6475
A_1     C     0.8642     0.7428     0.5926
A_3     C     0.8729     0.2686     0.5402
A_1     C     0.1192     0.5298     0.7969
A_3     C     0.407     0.8998     0.4732
A_2     C     0.4622     0.4959     0.7163
A_2     C     0.9114     0.7344     0.8113
A_2     C     0.3932     0.3189     0.4957
A_0     C     0.8395     0.2237     0.8268
A_0     C     0.6678     0.2935     0.0556
A_3     C     0.5695     0.0469     0.5431
A_0     C     0.0458     0.5051     0.9392
A_3     C     0.2544     0.4206     0.7733
A_0     C     0.5153     0.7972     0.5297
A_0     C     0.6862     0.845     0.7953
A_0     C     0.0368     0.2664     0.609
A_0     C     0.1776     0.9615     0.3614
A_2     C     0.2439     0.8971     0.2083
A_0     C     0.7644     0.1992     0.3139
A_3     C     0.3056     0.7341     0.6789
A_2     C     0.0373     0.6537     0.2519
A_0     C     0.456     0.3807     0.6752
A_1     C     0.0084     0.2634     0.8266
A_1     C     0.4283     0.8614     0.6867
A_3     C     0.5137     0.9352     0.895
A_3     C     0.4206     0.2082     0.253
A_2     C     0.9869     0.1356     0.8838
A_1     C     0.9023     0.6386     0.4016
A_2     C     0.4099     0.962     0.2025
A_2     C     0.5472     0.968     0.2092
A_3     C     0.6115     0.0512     0.7931
A_1     C     0.6252     0.5357     0.3392
A_1     C     0.2085     0.0905     0.8753
A_3     C     0.1403     0.4013     0.7122
A_3     C     0.8     0.8756     0.3075
A_1     C     0.1085     0.7532     0.4566
A_1     C     0.1847     0.0952     0.2642
A_2     C     0.198     0.0423     0.2744
A_1     C     0.442     0.971     0.8677
A_3     C     0.1812     0.4647     0.4884
A_2     C     0.6243     0.0933     0.3999
A_2     C     0.0184     0.7252     0.9132
A_3     C     0.7224     0.9675     0.5751
A_2     C     0.6239     0.7292     0.5627
A_3     C     0.7614     0.5455     0.8867
A_1     C     0.6439     0.7678     0.1364
A_3     C     0.4305     0.1275     0.8418
A_1     C     0.6352     0.1799     0.4231
A_0     C     0.8441     0.6758     0.1775
A_2     C     0.9577     0.4339     0.5545
A_0     C     0.1154     0.4254     0.8116
A_3     C     0.7442     0.5368     0.3504
A_0     C     0.5575     0.7149     0.1883
A_1     C     0.016     0.1315     0.8116
A_0     C     0.4607     0.9934     0.4781
A_1     C     0.2587     0.3329     0.2564
A_1     C     0.833     0.6779     0.1034
A_1     C     0.8303     0.6939     0.8782
A_3     C     0.4286     0.5628     0.5761
A_0     C     0.7758     0.565     0.9891
A_1     C     0.4296     0.72     0.8327
A_0     C     0.2883     0.4177     0.4048
A_3     C     0.7846     0.1707     0.4053
A_1     C     0.4779     0.5074     0.9758
A_2     C     0.2586     0.5923     0.5657
A_2     C     0.0161     0.422     0.2252
A_0     C     0.636     0.3723     0.1262
A_2     C     0.7928     0.0267     0.0271
A_1     C     0.1774     0.3151     0.5726
A_2     C     0.1309     0.0362     0.1203
A_0     C     0.2694     0.6305     0.9136
A_3     C     0.5604     0.0725     0.8863
A_1     C     0.3815     0.578     0.8141
A_0     C     0.0595     0.2593     0.5182
A_1     C     0.8683     0.4775     0.5743
A_2     C     0.5447     0.4855     0.5554
A_1     C     0.9306     0.176     0.4185
A_0     C     0.6326     0.212     0.9101
A_0     C     0.9765     0.31     0.2094
A_2     C     0.5153     0.0385     0.3806
A_0     C     0.8081     0.9516     0.4729
A_0     C     0.6984     0.8027     0.3211
A_0     C     0.5065     0.647     0.8588
A_0     C     0.0794     0.6129     0.2711
A_1     C     0.1755     0.5157     0.0285
A_1     C     0.7617     0.5863     0.0632
A_3     C     0.6225     0.7674     0.258
A_0     C     0.1746     0.9497     0.5808
A_0     C     0.1852     0.9849     0.8822
A_1     C     0.1809     0.6759     0.532
A_0     C     0.1413     0.7255     0.0242
A_0     C     0.8982     0.5871     0.7301
A_0     C     0.5727     0.5724     0.3451
A_1     C     0.2735     0.8162     0.8708
A_2     C     0.1576     0.9312     0.9536
A_3     C     0.5755     0.8652     0.4214
A_3     C     0.9013     0.5106     0.3222
A_1     C     0.9587     0.0601     0.1585
A_0     C     0.6321     0.0801     0.8151
A_3     C     0.2692     0.4332     0.5984
A_2     C     0.513     0.9546     0.2072
A_0     C     0.4272     0.1028     0.3607
A_1     C     0.1531     0.5425     0.2793
A_2     C     0.5367     0.8533     0.1239
A_3     C     0.7549     0.4258     0.0894
A_0     C     0.1016     0.3759     0.7546
A_2     C     0.0682     0.4743     0.7185
A_2     C     0.9401     0.5032     0.6633
A_2     C     0.6555     0.9326     0.7484
A_3     C     0.9919     0.3369     0.2815
A_0     C     0.6382     0.1798     0.9211
A_3     C     0.0162     0.7478     0.485
A_1     C     0.1894     0.4949     0.5796
A_0     C     0.5731     0.9051     0.348
A_1     C     0.6831     0.8518     0.6864
A_3     C     0.7845     0.7451     0.1695
A_1     C     0.2988     0.704     0.6486
A_2     C     0.6285     0.4308     0.9464
A_1     C     0.4379     0.6182     0.3297
A_0     C     0.4442     0.4236     0.9566
A_1     C     0.1443     0.5829     0.8102
A_0     C     0.4762     0.658     0.3716
A_3     C     0.2543     0.4461     0.91
A_1     C     0.8144     0.5297     0.3199
A_0     C     0.5087     0.1117     0.9759
A_3     C     0.973     0.3956     0.8187
A_3     C     0.9205     0.3649     0.0271
A_0     C     0.3831     0.354     0.7906
A_3     C     0.0773     0.083     0.9922
A_0     C     0.94     0.2934     0.9812
A_2     C     0.5525     0.1722     0.3883
A_0     C     0.8093     0.5089     0.7442
A_2     C     0.9529     0.4334     0.6044
A_2     C     0.1868     0.5194     0.4666
A_1     C     0.9814     0.549     0.8479
A_0     C     0.0614     0.6584     0.2916
A_2     C     0.8664     0.1742     0.7904
A_1     C     0.3585     0.3663     0.7767
A_3     C     0.2216     0.6648     0.2586
A_1     C     0.2472     0.0124     0.7004
A_0     C     0.7008     0.5337     0.4483
A_0     C     0.0528     0.3604     0.7343
A_2     C     0.0862     0.0779     0.6993
A_0     C     0.7869     0.1322     0.5787
A_2     C     0.761     0.949     0.7371
A_3     C     0.888     0.0326     0.6621
A_1     C     0.0193     0.6605     0.012
A_2     C     0.9947     0.9839     0.6035
A_1     C     0.6712     0.3903     0.9695
A_0     C     0.5213     0.3806     0.6072
A_1     C     0.4189     0.6173     0.0977
A_1     C     0.8981     0.6513     0.0095
A_2     C     0.1957     0.5555     0.5201
A_0     C     0.7418     0.963     0.9001
A_1     C     0.4512     0.363     0.956
A_1     C     0.6002     0.4099     0.6065
A_0     C     0.7704     0.4612     0.3284
A_1     C     0.0756     0.6963     0.5929
A_0     C     0.6928     0.8085     0.5735
A_0     C     0.0145     0.467     0.6384
A_2     C     0.5493     0.5921     0.6949
A_2     C     0.2844     0.1882     0.911
A_1     C     0.07     0.3383     0.7571
A_0     C     0.2087     0.2896     0.0519
A_0     C     0.7645     0.6393     0.1925
A_3     C     0.5149     0.311     0.6831
A_3     C     0.8465     0.5789     0.054
A_3     C     0.4732     0.2922     0.8374
A_1     C     0.4707     0.1751     0.7792
A_3     C     0.9496     0.9417     0.3071
A_3     C     0.7186     0.1697     0.5045
A_0     C     0.5634     0.7827     0.6708
A_3     C     0.5592     0.4494     0.1045
A_0     C     0.6893     0.7095     0.8584
A_2     C     0.5226     0.1962     0.0264
A_1     C     0.2028     0.3559     0.4657
A_0     C     0.3083     0.9047     0.2217
A_1     C     0.6554     0.4533     0.6437
A_3     C     0.6262     0.4573     0.6552
A_2     C     0.4852     0.1959     0.249
A_2     C     0.8631     0.6224     0.6327
A_0     C     0.1588     0.0736     0.1633
A_2     C     0.1091     0.7045     0.2458
A_1     C     0.8086     0.433     0.7601
A_2     C     0.1483     0.0306     0.3861
A_0     C     0.0856     0.9892     0.531
A_2     C     0.2881     0.078     0.6915
A_3     C     0.8699     0.7713     0.475
A_0     C     0.4882     0.9242     0.3803
A_0     C     0.3118     0.06     0.5709
A_0     C     0.8444     0.6524     0.4831
A_0     C     0.7039     0.8864     0.605
A_2     C     0.0102     0.0738     0.8444
A_0     C     0.6745     0.1164     0.2559
A_3     C     0.0571     0.3852     0.433
A_0     C     0.5084     0.9979     0.2639
A_2     C     0.1397     0.7388     0.3009
A_1     C     0.3551     0.6605     0.7583
A_2     C     0.3915     0.0552     0.7442
A_3     C     0.8199     0.5883     0.3585
A_1     C     0.0183     0.6393     0.9074
A_2     C     0.1455     0.2309     0.5221
A_0     C     0.0669     0.8137     0.9144
A_2     C     0.0728     0.0219     0.8244
A_3     C     0.852     0.3411     0.6905
A_3     C     0.9305     0.2446     0.7093
A_2     C     0.7192     0.3604     0.5176
A_2     C     0.9194     0.5339     0.0131
A_2     C     0.8949     0.1139     0.816
A_0     C     0.9149     0.9438     0.8602
A_2     C     0.3259     0.0462     0.9025
A_1     C     0.2521     0.1254     0.3786
A_2     C     0.2403     0.7669     0.0036
A_3     C     0.1359     0.0388     0.5268
A_2     C     0.9985     0.1803     0.9302
A_2     C     0.4385     0.4792     0.353
A_3     C     0.5945     0.8821     0.4159
A_1     C     0.1937     0.1228     0.6158
A_0     C     0.4056     0.434     0.2579
A_2     C     0.7346     0.3112     0.5446
A_1     C     0.7322     0.6344     0.2734
A_0     C     0.0778     0.0562     0.4119
A_0     C     0.342     0.148     0.4176
A_1     C     0.6312     0.7229     0.6213
A_2     C     0.3837     0.7345     0.8568
A_2     C     0.3542     0.6532     0.1534
A_0     C     0.9862     0.5643     0.0676
A_1     C     0.436     0.0208     0.7607
A_3     C     0.3482     0.8554     0.2962
A_3     C     0.7813     0.519     0.1918
A_2     C     0.9182     0.9108     0.9499
A_1     C     0.16     0.8243     0.2199
A_1     C     0.3464     0.211     0.5749
A_1     C     0.1899     0.0537     0.5162
A_1     C     0.8787     0.4794     0.5294
A_1     C     0.0348     0.8885     0.3699
A_0     C     0.9993     0.6987     0.8518
A_1     C     0.0003     0.8984     0.5477
A_2     C     0.1252     0.7097     0.1536
A_1     C     0.9747     0.6292     0.7109
A_1     C     0.9415     0.6952     0.5374
A_3     C     0.3271     0.1444     0.2245
A_1     C     0.4135     0.5733     0.8488
A_3     C     0.0514     0.3786     0.223
A_2     C     0.027     0.4948     0.3045
A_3     C     0.771     0.3433     0.5332
A_1     C     0.4818     0.5331     0.5443
A_0     C     0.3404     0.2161     0.325
A_3     C     0.0627     0.0933     0.9811
A_3     C     0.3097     0.4479     0.6912
A_2     C     0.911     0.6567     0.3636
A_0     C     0.6351     0.1115     0.9181
A_0     C     0.3546     0.5061     0.3974
A_1     C     0.6358     0.1177     0.3989
A_0     C     0.3985     0.5009     0.7979
A_3     C     0.269     0.3244     0.0851
A_3     C     0.6159     0.4522     0.1275
A_2     C     0.6039     0.1273     0.0495
A_2     C     0.6781     0.365     0.4498
A_3     C     0.5487     0.5377     0.2168
A_1     C     0.6875     0.2942     0.1752
A_1     C     0.0683     0.5537     0.2558
A_3     C     0.1398     0.0318     0.8254
A_1     C     0.0979     0.0153     0.9725
A_0     C     0.5176     0.6928     0.5187
A_3     C     0.3013     0.5209     0.2163
A_3     C     0.4187     0.1686     0.8482
A_1     C     0.9081     0.2167     0.3695
A_2     C     0.4938     0.4226     0.4707
A_2     C     0.2115     0.5012     0.3334
A_2     C     0.1859     0.7777     0.4318
A_1     C     0.5478     0.2194     0.8489
A_3     C     0.9632     0.4768     0.6812
A_3     C     0.0292     0.0108     0.6146
A_0     C     0.9333     0.8819     0.2474
A_0     C     0.7481     0.6823     0.981
A_0     C     0.8533     0.7247     0.7309
A_2     C     0.3904     0.7024     0.3214
A_3     C     0.5987     0.0731     0.0748
A_0     C     0.0329     0.5903     0.9757
A_2     C     0.1494     0.2445     0.9282
A_0     C     0.6756     0.1947     0.7225
A_3     C     0.1123     0.599     0.4194
A_0     C     0.5634     0.7359     0.8115
A_0     C     0.3971     0.1415     0.7133
A_1     C     0.5928     0.1793     0.9702
A_2     C     0.3957     0.7404     0.2578
A_0     C     0.1109     0.3305     0.4511
A_3     C     0.5861     0.1318     0.0643
A_0     C     0.1049     0.1267     0.6156
A_0     C     0.6087     0.6426     0.6599
A_2     C     0.731     0.2056     0.1211
A_0     C     0.1461     0.7754     0.8369
A_3     C     0.7676     0.6956     0.2737
A_2     C     0.0035     0.4004     0.3816
A_2     C     0.3676     0.4802     0.4409
A_0     C     0.8693     0.2939     0.7961
A_1     C     0.8415     0.4847     0.4656
A_0     C     0.9661     0.6975     0.775
A_1     C     0.7431     0.3278     0.0486
A_0     C     0.5579     0.1968     0.1207
A_1     C     0.3807     0.761     0.7334
A_3     C     0.8125     0.1593     0.646
A_0     C     0.2641     0.433     0.5463
A_2     C     0.7549     0.7017     0.0163
A_1     C     0.9638     0.8341     0.6614
A_3     C     0.2509     0.4067     0.8505
A_0     C     0.2999     0.0576     0.8004
A_2     C     0.768     0.2849     0.09
A_3     C     0.2159     0.1402     0.4212
A_3     C     0.7314     0.1155     0.7615
A_1     C     0.0574     0.1287     0.8311
A_1     C     0.1801     0.3286     0.7941
A_0     C     0.7293     0.3559     0.1685
A_0     C     0.0851     0.9082     0.2322
A_3     C     0.7466     0.8232     0.7806
A_1     C     0.5608     0.6672     0.9359
A_2     C     0.2296     0.2546     0.1779
A_0     C     0.3231     0.3613     0.9821
A_0     C     0.2094     0.9584     0.7163
A_0     C     0.3645     0.3597     0.7118
A_3     C     0.2674     0.9775     0.9666
A_2     C     0.1023     0.3363     0.7894
A_2     C     0.1413     0.9519     0.929
A_3     C     0.5574     0.0235     0.1494
A_2     C     0.6013     0.942     0.1754
A_2     C     0.1693     0.4896     0.4359
A_2     C     0.312     0.7677     0.1142
A_3     C     0.2561     0.8116     0.6748
A_0     C     0.7869     0.4306     0.8888
A_1     C     0.9522     0.9277     0.1351
A_3     C     0.0635     0.9716     0.392
A_1     C     0.9602     0.7596     0.3516
A_0     C     0.2017     0.7583     0.9539
A_2     C     0.9112     0.0085     0.3953
A_2     C     0.8432     0.8077     0.8136
A_2     C     0.4105     0.9849     0.4212
A_1     C     0.9576     0.6874     0.8419
A_3     C     0.5914     0.1556     0.95
A_1     C     0.318     0.7492     0.4705
A_0     C     0.1291     0.9217     0.6481
A_3     C     0.8798     0.0795     0.9549
A_0     C     0.1115     0.1521     0.9847
A_0     C     0.7415     0.5051     0.7213
A_0     C     0.8485     0.0391     0.8007
A_1     C     0.9175     0.1278     0.1094
A_1     C     0.931     0.6779     0.3403
A_0     C     0.9255     0.4505     0.3824
A_0     C     0.7044     0.4009     0.8339
A_0     C     0.123     0.3939     0.0145
A_0     C     0.0654     0.5126     0.4258
A_3     C     0.7131     0.9996     0.847
A_2     C     0.9983     0.6907     0.7513
A_1     C     0.06     0.9426     0.4088
A_1     C     0.6776     0.7042     0.559
A_1     C     0.2052     0.58     0.4135
A_3     C     0.3793     0.4157     0.8662
A_1     C     0.0569     0.7502     0.6124
A_0     C     0.8434     0.1122     0.1559
A_3     C     0.7197     0.8455     0.5776
A_3     C     0.138     0.6332     0.261
A_1     C     0.9355     0.0318     0.8407
A_1     C     0.5612     0.7528     0.6202
A_2     C     0.4085     0.3963     0.8544
A_1     C     0.0299     0.6775     0.6732
A_2     C     0.0835     0.8903     0.1042
A_1     C     0.6581     0.1397     0.0735
A_2     C     0.1223     0.6762     0.8981
A_3     C     0.2805     0.8976     0.8006
A_0     C     0.8347     0.0614     0.1383
A_1     C     0.1123     0.9793     0.17
A_2     C     0.9132     0.1822     0.9588
A_3     C     0.208     0.7652     0.1422
A_1     C     0.7013     0.0138     0.2296
A_2     C     0.5101     0.2484     0.6066
A_2     C     0.6634     0.5249     0.3069
A_0     C     0.6613     0.9802     0.2362
A_2     C     0.5425     0.5164     0.138
A_2     C     0.0985     0.4286     0.0983
A_2     C     0.5813     0.3324     0.4014
A_3     C     0.7984     0.4242     0.3515
A_3     C     0.6011     0.0854     0.1888
A_1     C     0.4777     0.8001     0.4823
A_0     C     0.7497     0.999     0.8894
A_1     C     0.2742     0.1006     0.0342
A_3     C     0.6706     0.1128     0.97
A_1     C     0.416     0.3423     0.7608
A_0     C     0.7202     0.6396     0.489
A_1     C     0.3063     0.3126     0.8004
A_0     C     0.022     0.603     0.6865
A_3     C     0.9241     0.7621     0.5479
A_0     C     0.3986     0.826     0.3916
A_3     C     0.145     0.1681     0.6365
A_1     C     0.1755     0.639     0.0978
A_1     C     0.1963     0.8587     0.8285
A_3     C     0.8118     0.4813     0.865
A_2     C     0.0668     0.0924     0.8377
A_0     C     0.9983     0.0659     0.3685
A_1     C     0.4163     0.3216     0.1991
A_1     C     0.0922     0.3124     0.9316
A_2     C     0.773     0.3308     0.9188
A_3     C     0.4415     0.7315     0.5681
A_2     C     0.4289     0.0271     0.3724
A_0     C     0.7651     0.721     0.8513
A_0     C     0.3026     0.1832     0.975
A_3     C     0.5988     0.7536     0.7528
A_2     C     0.7023     0.025     0.5095
A_2     C     0.8204     0.7728     0.9144
A_2     C     0.5449     0.3529     0.956
A_1     C     0.6286     0.1646     0.9909
A_3     C     0.404     0.3636     0.2237
A_1     C     0.548     0.879     0.4853
A_2     C     0.4762     0.2241     0.9255
A_3     C     0.7883     0.5983     0.3367
A_0     C     0.6623     0.3122     0.6013
A_1     C     0.531     0.7986     0.5343
A_0     C     0.3395     0.2387     0.064
A_0     C     0.2284     0.0032     0.0387
A_0     C     0.5009     0.0652     0.7201
A_1     C     0.5145     0.5061     0.1288
A_3     C     0.9176     0.6431     0.185
A_1     C     0.3881     0.4724     0.8672
A_2     C     0.379     0.5703     0.4241
A_2     C     0.6244     0.3365     0.6846
A_1     C     0.0674     0.8642     0.5204
A_2     C     0.8763     0.7252     0.4983
A_1     C     0.7338     0.6134     0.919
A_2     C     0.9603     0.7695     0.0672
A_1     C     0.5945     0.3024     0.055
A_0     C     0.0372     0.3666     0.0251
A_1     C     0.1497     0.3004     0.9338
A_0     C     0.7264     0.275     0.7507
A_1     C     0.177     0.3184     0.25
A_0     C     0.1109     0.9386     0.8163
A_0     C     0.4179     0.6865     0.4023
A_1     C     0.4174     0.0901     0.1155
A_3     C     0.8323     0.5513     0.5266
A_0     C     0.9991     0.0675     0.1089
A_2     C     0.8195     0.2431     0.0042
A_0     C     0.4574     0.6662     0.3361
A_1     C     0.7435     0.1936     0.3306
A_0     C     0.0996     0.5852     0.6924
A_2     C     0.4327     0.4485     0.7213
A_2     C     0.5401     0.2023     0.7049
A_2     C     0.7639     0.7357     0.2192
A_2     C     0.0912     0.0064     0.6479
A_3     C     0.7271     0.342     0.3204
A_3     C     0.383     0.0196     0.104
A_2     C     0.1719     0.1265     0.4086
A_0     C     0.5707     0.6742     0.5665
A_3     C     0.8655     0.3884     0.7082
A_3     C     0.9901     0.5534     0.6274
A_2     C     0.4892     0.7446     0.4978
A_2     C     0.5796     0.2148     0.5873
A_3     C     0.3094     0.5587     0.3588
A_3     C     0.276     0.8248     0.6502
A_2     C     0.8505     0.2001     0.8788
A_3     C     0.6024     0.6364     0.5119
A_3     C     0.1667     0.4734     0.3467
A_1     C     0.8114     0.0719     0.6044
A_2     C     0.2157     0.5085     0.7579
A_0     C     0.9299     0.2658     0.3026
A_3     C     0.8267     0.3391     0.8858
A_2     C     0.3457     0.8307     0.2576
A_3     C     0.0525     0.6079     0.5929
A_2     C     0.5922     0.0304     0.3515
A_0     C     0.1016     0.5049     0.1669
A_3     C     0.1818     0.3169     0.2141
A_3     C     0.2961     0.1431     0.7925
A_0     C     0.2616     0.4446     0.419
A_1     C     0.0021     0.1562     0.3313
A_0     C     0.004     0.819     0.0373
A_1     C     0.0032     0.3737     0.8277
A_1     C     0.2625     0.0081     0.1061
A_1     C     0.0546     0.0639     0.4227
A_1     C     0.6317     0.3898     0.5405
A_3     C     0.2881     0.9393     0.8197
A_0     C     0.2641     0.0005     0.0584
A_2     C     0.074     0.4432     0.2209
A_3     C     0.7119     0.5198     0.5338
A_1     C     0.0681     0.3955     0.0648
A_0     C     0.0369     0.6149     0.2321
A_3     C     0.0144     0.8338     0.3093
A_1     C     0.4019     0.6144     0.2014
A_1     C     0.5009     0.3362     0.5727
A_0     C     0.539     0.6863     0.7347
A_2     C     0.3321     0.8871     0.2237
A_2     C     0.216     0.1459     0.503
A_1     C     0.3301     0.553     0.563
A_2     C     0.131     0.1855     0.4423
A_1     C     0.6439     0.0574     0.3987
A_0     C     0.9204     0.0987     0.9632
A_1     C     0.6376     0.5456     0.8049
A_1     C     0.1132     0.0705     0.9369
A_2     C     0.4454     0.0767     0.1134
A_1     C     0.9983     0.1295     0.6897
A_3     C     0.0479     0.5356     0.3237
A_3     C     0.2657     0.6531     0.6087
A_0     C     0.1691     0.552     0.952
A_3     C     0.1027     0.391     0.7003
A_1     C     0.5636     0.5136     0.7345
A_1     C     0.8244     0.1536     0.2431
A_0     C     0.0686     0.5337     0.6982
A_0     C     0.8777     0.3035     0.9567
A_2     C     0.8221     0.1775     0.033
A_1     C     0.7492     0.672     0.5284
A_2     C     0.9917     0.5023     0.6153
A_0     C     0.9669     0.933     0.3263
A_1     C     0.3974     0.8257     0.2739
A_0     C     0.5491     0.4754     0.127
A_0     C     0.3679     0.9503     0.0152
A_3     C     0.0521     0.2768     0.2219
A_2     C     0.4665     0.4484     0.6979
A_1     C     0.9121     0.7195     0.4178
A_0     C     0.3478     0.0897     0.605
A_2     C     0.8324     0.9851     0.2681
A_1     C     0.8652     0.6228     0.3489
A_3     C     0.4715     0.8489     0.7368
A_2     C     0.5576     0.8454     0.5869
A_0     C     0.9151     0.017     0.5128
A_3     C     0.2431     0.7268     0.7722
A_0     C     0.7794     0.6748     0.8876
A_1     C     0.4722     0.1303     0.4687
A_2     C     0.9868     0.3376     0.4436
A_0     C     0.3009     0.1826     0.8528
A_2     C     0.7106     0.8574     0.62
A_1     C     0.1065     0.7547     0.3448
A_1     C     0.775     0.967     0.1305
A_1     C     0.7953     0.2779     0.6866
A_0     C     0.7178     0.5941     0.6688
A_0     C     0.3068     0.2629     0.6488
A_0     C     0.7472     0.9537     0.3874
A_3     C     0.2796     0.3877     0.7913
A_2     C     0.2659     0.0505     0.78
A_0     C     0.4723     0.3202     0.2539
A_2     C     0.8155     0.4716     0.4099
A_0     C     0.8839     0.9565     0.4402
A_0     C     0.6036     0.6884     0.7772
A_2     C     0.8447     0.6705     0.5092
A_2     C     0.018     0.3617     0.3739
A_1     C     0.4508     0.4286     0.4725
A_2     C     0.6839     0.02     0.3608
A_2     C     0.9248     0.6769     0.2946
A_0     C     0.5059     0.5847     0.0027
A_0     C     0.4947     0.667     0.0685
A_2     C     0.0075     0.4007     0.6953
A_0     C     0.3103     0.2977     0.3466
A_3     C     0.1357     0.1955     0.9134
A_1     C     0.2274     0.6531     0.34
A_3     C     0.2051     0.3455     0.2393
A_3     C     0.7648     0.67     0.0806
A_3     C     0.782     0.4228     0.3906
A_1     C     0.9328     0.7989     0.5827
A_1     C     0.139     0.8095     0.275
A_2     C     0.9626     0.8144     0.2579
A_2     C     0.4989     0.4765     0.8463
A_3     C     0.9798     0.6642     0.0545
A_3     C     0.6161     0.2104     0.698
A_2     C     0.4623     0.088     0.5717
A_1     C     0.0284     0.01     0.7881
A_1     C     0.5795     0.1487     0.4556
A_0     C     0.659     0.5581     0.9618
A_0     C     0.946     0.418     0.135
A_3     C     0.3779     0.2576     0.4618
A_3     C     0.5667     0.1388     0.7874
A_1     C     0.0655     0.8663     0.5657
A_0     C     0.8848     0.0284     0.0641
A_2     C     0.4423     0.8722     0.0525
A_1     C     0.5266     0.8656     0.887
A_0     C     0.8119     0.1475     0.0235
A_2     C     0.9537     0.513     0.8299
A_0     C     0.3992     0.1247     0.6168
A_2     C     0.4031     0.7754     0.72
A_0     C     0.1864     0.2686     0.6275
A_2     C     0.3931     0.7457     0.6578
A_1     C     0.248     0.8449     0.8096
A_1     C     0.8127     0.2562     0.3695
A_0     C     0.7208     0.9816     0.3399
A_1     C     0.0481     0.2377     0.3564
A_2     C     0.4408     0.0278     0.7357
A_3     C     0.9425     0.3224     0.3186
A_3     C     0.2     0.6764     0.5777
A_2     C     0.5835     0.6843     0.0628
A_1     C     0.4518     0.8534     0.2439
A_2     C     0.9061     0.7527     0.8423
A_1     C     0.3829     0.6783     0.3892
A_3     C     0.1269     0.0835     0.1901
A_2     C     0.5229     0.5826     0.6451
A_1     C     0.4977     0.9857     0.8976
A_2     C     0.5296     0.9112     0.1276
A_0     C     0.0302     0.6171     0.1181
A_3     C     0.8279     0.9607     0.1506
A_2     C     0.0151     0.105     0.9225
A_0     C     0.6796     0.1076     0.2676
A_2     C     0.9554     0.7158     0.9587
A_1     C     0.5618     0.833     0.5108
A_3     C     0.0235     0.8379     0.5172
A_1     C     0.6768     0.3675     0.0211
A_1     C     0.3831     0.9517     0.2644
A_3     C     0.3844     0.6199     0.9319
A_1     C     0.6577     0.0076     0.768
A_3     C     0.5496     0.5574     0.873
A_2     C     0.7996     0.4738     0.3528
A_1     C     0.3784     0.2909     0.1732
A_3     C     0.6741     0.986     0.7728
A_2     C     0.4852     0.2406     0.7662
A_2     C     0.8704     0.9843     0.9668
A_1     C     0.3613     0.0993     0.8742
A_1     C     0.756     0.2512     0.9271
A_0     C     0.0738     0.4746     0.7765
A_2     C     0.4312     0.1678     0.065
A_2     C     0.205     0.9535     0.8045
A_3     C     0.2013     0.8805     0.2944
A_1     C     0.4748     0.7988     0.6472
A_2     C     0.9738     0.9835     0.0353
A_1     C     0.1606     0.0097     0.7864
A_2     C     0.8084     0.7468     0.6783
A_1     C     0.428     0.3368     0.0368
A_3     C     0.2395     0.0385     0.7696
A_1     C     0.9885     0.519     0.5469
A_1     C     0.0392     0.4608     0.439
A_1     C     0.9713     0.722     0.6604
A_2     C     0.6398     0.4775     0.9126
A_1     C     0.7693     0.5007     0.8109
A_2     C     0.399     0.4561     0.7415
A_3     C     0.1296     0.194     0.7284
A_1     C     0.5301     0.5721     0.2658
A_3     C     0.9902     0.1698     0.223
A_2     C     0.2614     0.5223     0.3268
A_2     C     0.5052     0.7938     0.8469
A_0     C     0.4598     0.1735     0.8889
A_2     C     0.647     0.4445     0.2095
A_2     C     0.5648     0.0511     0.4618
A_0     C     0.3306     0.4153     0.2303
A_1     C     0.4105     0.7628     0.924
A_2     C     0.3076     0.1969     0.2587
A_2     C     0.1396     0.5831     0.1446
A_3     C     0.4152     0.0562     0.9885
A_0     C     0.0809     0.1117     0.7726
A_0     C     0.5972     0.2243     0.4659
A_1     C     0.3007     0.5836     0.4596
A_3     C     0.979     0.108     0.2064
A_0     C     0.9492     0.8107     0.1722
A_1     C     0.4185     0.2332     0.306
A_3     C     0.7048     0.4337     0.2291
A_3     C     0.534     0.2155     0.5036
A_1     C     0.9619     0.6057     0.721
A_2     C     0.0695     0.1188     0.1781
A_0     C     0.6768     0.4276     0.4926
A_0     C     0.1727     0.8837     0.9078
A_2     C     0.9828     0.5704     0.2018
A_3     C     0.127     0.7566     0.5355
A_2     C     0.68     0.4638     0.8818
A_3     C     0.3742     0.74     0.0326
A_3     C     0.2264     0.9663     0.4395
A_2     C     0.7202     0.3626     0.0263
A_1     C     0.2223     0.4737     0.4136
A_1     C     0.8814     0.4019     0.2366
A_0     C     0.8301     0.6707     0.9013
A_1     C     0.9985     0.422     0.1304
A_1     C     0.649     0.3972     0.4131
A_3     C     0.2706     0.2819     0.3731
A_0     C     0.4866     0.7794     0.3216
A_3     C     0.1553     0.8149     0.3938
A_0     C     0.0854     0.485     0.7349
A_3     C     0.2225     0.2913     0.8045
A_2     C     0.4192     0.6905     0.4052
A_0     C     0.4457     0.9843     0.7507
A_2     C     0.3431     0.6608     0.2787
A_2     C     0.6866     0.489     0.2222
A_3     C     0.5581     0.3837     0.2165
A_3     C     0.267     0.9468     0.8461
A_1     C     0.9392     0.1167     0.9775
A_0     C     0.2012     0.5046     0.3153
A_2     C     0.9347     0.7017     0.3736
A_2     C     0.4567     0.3794     0.5996
A_1     C     0.3297     0.6755     0.3834
A_2     C     0.0964     0.0928     0.6622
A_3     C     0.0933     0.6869     0.0175
A_0     C     0.965     0.5556     0.4974
A_3     C     0.8396     0.4148     0.8399
A_3     C     0.0496     0.7091     0.6456
A_1     C     0.6543     0.0074     0.7252
A_3     C     0.8292     0.6269     0.8086
A_3     C     0.7139     0.5434     0.8434
A_1     C     0.7507     0.2915     0.8861
A_0     C     0.4269     0.394     0.9207
A_1     C     0.7178     0.0714     0.9822
A_1     C     0.4414     0.8886     0.3038
A_3     C     0.4898     0.2383     0.6484
A_0     C     0.1976     0.3158     0.2631
A_2     C     0.2926     0.9398     0.897
A_1     C     0.0868     0.9283     0.1649
A_1     C     0.9198     0.9287     0.1217
A_2     C     0.4447     0.143     0.9612
A_0     C     0.9163     0.2997     0.7325
A_1     C     0.4702     0.0739     0.9755
A_2     C     0.2325     0.9237     0.3183
A_1     C     0.3922     0.4625     0.1655
A_2     C     0.3999     0.0272     0.045
A_1     C     0.3511     0.1825     0.5261
A_3     C     0.435     0.5362     0.6631
A_2     C     0.8591     0.0729     0.5372
A_3     C     0.0774     0.073     0.3676
A_2     C     0.5786     0.3332     0.6584
A_1     C     0.3955     0.9284     0.4454
A_3     C     0.8196     0.0775     0.2904
A_2     C     0.4472     0.3353     0.2931
A_1     C     0.9563     0.6524     0.496
A_0     C     0.3184     0.0228     0.5055
A_1     C     0.5919     0.8486     0.6282
A_3     C     0.7991     0.3538     0.4656
A_0     C     0.1808     0.0212     0.4675
A_0     C     0.0235     0.4888     0.194
A_2     C     0.4119     0.3451     0.7861
A_3     C     0.9566     0.6875     0.4836
A_0     C     0.2327     0.3495     0.2604
A_0     C     0.3137     0.4257     0.0258
A_1     C     0.3563     0.6849     0.406
A_3     C     0.9114     0.5417     0.8237
A_0     C     0.0379     0.3146     0.6273
A_2     C     0.4859     0.2     0.3356
A_1     C     0.3798     0.9736     0.3113
A_3     C     0.277     0.6978     0.8207
A_3     C     0.8596     0.3951     0.0825
A_1     C     0.7403     0.2932     0.5432
A_0     C     0.9846     0.8626     0.5017
A_1     C     0.2873     0.3849     0.9771
A_1     C     0.5884     0.3344     0.9175
A_1     C     0.5895     0.8088     0.422
A_0     C     0.8857     0.823     0.7499
A_1     C     0.803     0.7573     0.5199
A_1     C     0.0389     0.831     0.6608
A_1     C     0.3205     0.7972     0.9656
A_1     C     0.556     0.9273     0.4397
A_1     C     0.6791     0.2306     0.3364
A_2     C     0.3778     0.5678     0.1899
A_3     C     0.0771     0.2837     0.4679
A_0     C     0.4866     0.3347     0.5047
A_2     C     0.8544     0.4169     0.0621
A_1     C     0.7499     0.2639     0.3563
A_3     C     0.678     0.8694     0.747
A_1     C     0.9945     0.8502     0.9747
A_2     C     0.4112     0.1667     0.0481
A_1     C     0.757     0.7407     0.1802
A_3     C     0.267     0.8303     0.5422
A_2     C     0.4251     0.4237     0.8821
A_2     C     0.3085     0.4509     0.3722
A_0     C     0.3793     0.4146     0.3487
A_2     C     0.0636     0.4041     0.6724
A_1     C     0.7683     0.5219     0.6726
A_3     C     0.1149     0.0812     0.3398
A_0     C     0.5274     0.8003     0.0327
A_2     C     0.8685     0.8055     0.4478
A_2     C     0.0149     0.5484     0.6613
A_3     C     0.7743     0.422     0.8543
A_0     C     0.2116     0.7821     0.8445
A_3     C     0.5734     0.3368     0.6697
A_2     C     0.7587     0.2902     0.0818
A_3     C     0.4455     0.3221     0.0296
A_2     C     0.9435     0.0976     0.0062
A_1     C     0.7259     0.5184     0.2574
A_3     C     0.7311     1.0     0.9936
A_0     C     0.0916     0.0865     0.2174
A_2     C     0.1924     0.1444     0.7587
A_1     C     0.5856     0.865     0.6796
A_3     C     0.844     0.9597     0.4912
A_2     C     0.8158     0.4794     0.3653
A_0     C     0.5571     0.4388     0.0357
A_1     C     0.5119     0.7464     0.8375
A_2     C     0.1403     0.4708     0.9226
A_0     C     0.3105     0.3317     0.8201
A_1     C     0.793     0.9154     0.6086
A_2     C     0.7095     0.7058     0.6468
A_2     C     0.6194     0.3833     0.5678
A_2     C     0.8197     0.9724     0.8268
A_2     C     0.6481     0.2301     0.2444
A_3     C     0.1597     0.1674     0.9675
A_3     C     0.0303     0.0465     0.7206
A_0     C     0.2548     0.35     0.9823
A_1     C     0.0763     0.8558     0.3223
A_0     C     0.6414     0.1232     0.4015
A_2     C     0.1708     0.2607     0.9533
A_3     C     0.8098     0.7998     0.7804
A_0     C     0.3748     0.2283     0.627
A_2     C     0.1417     0.9902     0.4635
A_0     C     0.6327     0.7844     0.8444
A_2     C     0.3155     0.6321     0.9517
A_2     C     0.9592     0.7478     0.0848
A_3     C     0.2159     0.9272     0.3535
A_2     C     0.921     0.1265     0.2291
A_3     C     0.339     0.4188     0.1312
A_1     C     0.9739     0.2381     0.2596
A_1     C     0.1783     0.7774     0.3635
A_1     C     0.3365     0.54     0.7735
A_1     C     0.5272     0.4416     0.2094
A_2     C     0.6624     0.4354     0.7966
A_3     C     0.1328     0.1194     0.5737
A_0     C     0.2221     0.3205     0.2613
A_2     C     0.5858     0.5695     0.6142
A_0     C     0.0361     0.6707     0.1083
A_1     C     0.5001     0.9376     0.6221
A_0     C     0.5963     0.6844     0.7148
A_1     C     0.3475     0.8624     0.4346
A_0     C     0.4829     0.2862     0.8984
A_1     C     0.5986     0.2778     0.2948
A_1     C     0.069     0.1025     0.1889
A_2     C     0.0593     0.2337     0.5296
A_1     C     0.7771     0.6775     0.2051
A_3     C     0.9054     0.5294     0.028
A_1     C     0.9449     0.9577     0.2434
A_1     C     0.1556     0.7834     0.3374
A_2     C     0.5075     0.1987     0.6723
A_3     C     0.6837     0.1639     0.583
A_0     C     0.8818     0.0275     0.741
A_1     C     0.5463     0.8663     0.684
A_1     C     0.3482     0.1893     0.2356
A_3     C     0.4777     0.0522     0.0877
A_1     C     0.8011     0.1207     0.9262
A_3     C     0.2348     0.7721     0.9418
A_0     C     0.4331     0.015     0.371
A_2     C     0.4737     0.1775     0.0164
A_0     C     0.7552     0.358     0.4722
A_1     C     0.0806     0.1552     0.832
A_3     C     0.242     0.6485     0.6556
A_1     C     0.9166     0.2047     0.0274
A_2     C     0.6744     0.4548     0.1684
A_3     C     0.0423     0.9748     0.939
A_3     C     0.4284     0.9945     0.8841
A_1     C     0.7513     0.9447     0.5628
A_2     C     0.5462     0.1736     0.2472
A_3     C     0.9791     0.872     0.2143
A_0     C     0.9948     0.8622     0.1573
A_2     C     0.1489     0.8753     0.8483
A_1     C     0.5952     0.2107     0.1931
A_1     C     0.3008     0.4194     0.5351
A_1     C     0.6858     0.6371     0.523
A_1     C     0.1277     0.2736     0.0487
A_3     C     0.673     0.8246     0.1891
A_3     C     0.3349     0.266     0.7735
A_2     C     0.3402     0.1276     0.9285
A_0     C     0.0962     0.6262     0.0404
A_2     C     0.6323     0.3041     0.6587
A_2     C     0.2859     0.8866     0.6247
A_2     C     0.7877     0.6111     0.5081
A_2     C     0.5305     0.5902     0.2865
A_2     C     0.9288     0.0353     0.7043
A_0     C     0.8483     0.0079     0.2143
A_1     C     0.5827     0.8011     0.9487
A_1     C     0.2792     0.3652     0.4362
A_1     C     0.1022     0.664     0.5315
A_2     C     0.0463     0.1245     0.5642
A_1     C     0.9862     0.2857     0.617
A_2     C     0.235     0.5619     0.5348
A_2     C     0.9393     0.9328     0.7409
A_1     C     0.616     0.0849     0.0249
A_3     C     0.7405     0.5008     0.0593
A_1     C     0.5472     0.7148     0.925
A_1     C     0.8557     0.048     0.2841
A_1     C     0.0944     0.0414     0.8712
A_0     C     0.3087     0.5849     0.9551
A_1     C     0.5014     0.5657     0.3607
A_1     C     0.2836     0.5705     0.2853
A_3     C     0.4827     0.5284     0.4084
A_0     C     0.3373     0.0457     0.6548
A_3     C     0.4836     0.0974     0.3221
A_3     C     0.2049     0.9813     0.7311
A_2     C     0.7189     0.5837     0.5586
A_2     C     0.8579     0.2624     0.051
A_2     C     0.5071     0.2796     0.1288
A_1     C     0.6854     0.9611     0.2236
A_3     C     0.7687     0.0812     0.8933
A_3     C     0.3891     0.6684     0.5286
A_0     C     0.3231     0.9744     0.6385
A_1     C     0.9795     0.0727     0.7009
A_0     C     0.676     0.7302     0.1373
A_1     C     0.7518     0.1771     0.6977
A_0     C     0.8402     0.8311     0.5421
A_3     C     0.386     0.062     0.6383
A_0     C     0.9985     0.5739     0.7775
A_0     C     0.6438     0.8986     0.0276
A_0     C     0.5742     0.6044     0.3222
A_3     C     0.4452     0.3508     0.4918
A_2     C     0.0997     0.4466     0.6153
A_2     C     0.3219     0.7041     0.0385
A_3     C     0.0665     0.4472     0.2303
A_1     C     0.8436     0.0964     0.5089
A_0     C     0.6943     0.2811     0.4248
A_1     C     0.6581     0.5637     0.4514
A_2     C     0.9248     0.483     0.2501
A_0     C     0.0589     0.2045     0.9548
A_0     C     0.2254     0.2231     0.4232
A_1     C     0.011     0.0356     0.2562
A_0     C     0.5249     0.0325     0.6178
A_1     C     0.3894     0.4923     0.6587
A_2     C     0.5961     0.2825     0.8452
A_2     C     0.5299     0.2977     0.6762
A_3     C     0.7152     0.199     0.646
A_2     C     0.1067     0.5993     0.9469
A_1     C     0.9778     0.225     0.0251
A_1     C     0.4841     0.1014     0.4431
A_3     C     0.3134     0.7561     0.1605
A_3     C     0.5509     0.2965     0.1046
A_2     C     0.2587     0.1253     0.2076
A_2     C     0.403     0.2211     0.4218
A_2     C     0.1063     0.2814     0.4365
A_1     C     0.9613     0.0739     0.4405
A_2     C     0.3003     0.4524     0.2267
A_2     C     0.4953     0.422     0.6648
A_1     C     0.98     0.4004     0.6017
A_1     C     0.1039     0.5126     0.6225
A_3     C     0.8865     0.8932     0.1693
A_0     C     0.8884     0.4229     0.5512
A_0     C     0.2922     0.1731     0.8168
A_3     C     0.8565     0.4566     0.695
A_0     C     0.9442     0.9331     0.0007
A_0     C     0.4673     0.1963     0.0878
A_3     C     0.3304     0.3897     0.7385
A_3     C     0.2711     0.0118     0.5141
A_3     C     0.267     0.4377     0.7067
A_0     C     0.8131     0.2324     0.0198
A_3     C     0.9995     0.5415     0.9115
A_1     C     0.363     0.3791     0.7958
A_3     C     0.8348     0.4     0.0652
A_2     C     0.3966     0.0606     0.579
A_3     C     0.6744     0.9467     0.2497
A_0     C     0.9028     0.7527     0.2656
A_1     C     0.7688     0.4473     0.3447
A_1     C     0.9107     0.5877     0.2339
A_3     C     0.9831     0.8174     0.426
A_3     C     0.4134     0.2714     0.654
A_3     C     0.6766     0.9112     0.33
A_2     C     0.9198     0.2512     0.9992
A_0     C     0.5678     0.9825     0.4548
A_3     C     0.3174     0.1072     0.263
A_2     C     0.7452     0.6219     0.6401
A_3     C     0.4299     0.3384     0.5509
A_0     C     0.7973     0.1848     0.2729
A_0     C     0.9243     0.5212     0.0153
A_2     C     0.0108     0.4268     0.3875
A_1     C     0.599     0.8479     0.8121
A_1     C     0.3742     0.2372     0.7209
A_0     C     0.5367     0.9518     0.1626
A_2     C     0.3463     0.4393     0.8529
A_1     C     0.6924     0.2805     0.9419
A_0     C     0.8516     0.4217     0.3984
A_0     C     0.5827     0.0575     0.7809
A_3     C     0.0455     0.7054     0.7512
A_0     C     0.5442     0.0652     0.9833
A_3     C     0.735     0.1161     0.6805
A_0     C     0.4688     0.2271     0.3016
A_1     C     0.3182     0.8405     0.4332
A_3     C     0.6273     0.6757     0.0587
A_2     C     0.9567     0.9835     0.0002
A_2     C     0.6056     0.3759     0.9759
A_3     C     0.0442     0.9011     0.9931
A_2     C     0.7113     0.4808     0.0242
A_1     C     0.637     0.3879     0.7423
A_3     C     0.4056     0.6245     0.5765
A_3     C     0.202     0.3547     0.8628
A_0     C     0.1808     0.0109     0.723
A_0     C     0.9126     0.1986     0.0218
A_0     C     0.2503     0.547     0.4505
A_1     C     0.7716     0.9973     0.9942
A_2     C     0.907     0.2315     0.2158
A_2     C     0.1012     0.7171     0.7023
A_2     C     0.9137     0.5881     0.1763
A_1     C     0.7559     0.9847     0.3374
A_1     C     0.6267     0.7744     0.5362
A_1     C     0.383     0.3973     0.1627
A_3     C     0.3859     0.285     0.3606
A_2     C     0.646     0.6926     0.938
A_3     C     0.5136     0.6453     0.388
A_0     C     0.7914     0.7428     0.644
A_1     C     0.2149     0.2399     0.4049
A_2     C     0.2655     0.9842     0.7873
A_0     C     0.7616     0.193     0.4127
A_3     C     0.1503     0.9537     0.5521
A_2     C     0.7455     0.276     0.7611
A_0     C     0.3005     0.0493     0.2939
A_2     C     0.8968     0.2479     0.8885
A_1     C     0.5594     0.8911     0.5908
A_2     C     0.8358     0.2774     0.5605
A_3     C     0.1475     0.3731     0.8447
A_3     C     0.413     0.244     0.6043
A_1     C     0.5198     0.3279     0.2082
A_0     C     0.5179     0.9426     0.1882
A_1     C     0.3433     0.9912     0.6764
A_3     C     0.7562     0.6383     0.0782
A_1     C     0.9904     0.9282     0.1145
A_1     C     0.9538     0.5107     0.0882
A_0     C     0.7018     0.3872     0.8427
A_2     C     0.5031     0.8141     0.6257
A_3     C     0.2492     0.028     0.5524
A_3     C     0.0752     0.5858     0.6603
A_2     C     0.6366     0.8261     0.7776
A_2     C     0.7611     0.0459     0.0984
A_1     C     0.2302     0.4192     0.2613
A_0     C     0.6455     0.2743     0.4739
A_1     C     0.1011     0.3543     0.6794
A_0     C     0.84     0.9182     0.4334
A_3     C     0.4559     0.0193     0.0691
A_1     C     0.7567     0.5839     0.0497
A_3     C     0.286     0.8974     0.5271
A_2     C     0.9024     0.3125     0.2564
A_0     C     0.0737     0.429     0.4778
A_3     C     0.9914     0.2574     0.1023
A_0     C     0.6066     0.0878     0.879
A_1     C     0.9022     0.4575     0.6106
A_2     C     0.4799     0.1683     0.4322
A_1     C     0.9057     0.9527     0.7497
A_1     C     0.4039     0.1296     0.9155
A_0     C     0.5622     0.4095     0.3947
A_3     C     0.0669     0.3148     0.7554
A_0     C     0.1329     0.3129     0.85
A_0     C     0.185     0.0524     0.0783
A_3     C     0.6226     0.9386     0.8926
A_2     C     0.2405     0.9703     0.5448
A_0     C     0.426     0.2444     0.071
A_0     C     0.4693     0.6471     0.3552
A_1     C     0.5775     0.5151     0.151
A_1     C     0.8804     0.8754     0.7674
A_0     C     0.5473     0.6541     0.1831
A_0     C     0.7548     0.5633     0.4998
A_2     C     0.6477     0.9707     0.3375
A_1     C     0.1751     0.6516     0.9112
A_2     C     0.2325     0.2471     0.0212
A_1     C     0.4543     0.9974     0.7894
A_3     C     0.9295     0.7118     0.7194
A_2     C     0.0894     0.0429     0.0325
A_0     C     0.8217     0.6174     0.6051
A_2     C     0.1213     0.1088     0.6934
A_0     C     0.953     0.7745     0.4978
A_1     C     0.7515     0.5863     0.2668
A_3     C     0.6473     0.0138     0.6247
A_2     C     0.1079     0.8422     0.6446
A_2     C     0.7819     0.9239     0.7651
A_2     C     0.6019     0.922     0.0774
A_2     C     0.9813     0.3704     0.7198
A_0     C     0.1781     0.6959     0.8658
A_2     C     0.4409     0.8709     0.8628
A_3     C     0.4454     0.3543     0.1541
A_1     C     0.1125     0.5046     0.1048
A_1     C     0.4352     0.9635     0.2409
A_2     C     0.1567     0.6836     0.1498
A_3     C     0.5311     0.4079     0.9147
A_3     C     0.9174     0.8915     0.602
A_2     C     0.2915     0.6061     0.5048
A_0     C     0.5687     0.7879     0.7827
A_2     C     0.0551     0.8048     0.3364
A_0     C     0.6749     0.6763     0.4422
A_3     C     0.1475     0.3477     0.3377
A_2     C     0.8951     0.5214     0.3324
A_1     C     0.0955     0.9548     0.9856
A_2     C     0.5491     0.8298     0.7177
A_1     C     0.0205     0.6808     0.6931
A_0     C     0.5409     0.1411     0.5119
A_0     C     0.2613     0.4026     0.4245
A_1     C     0.1667     0.1936     0.159
A_3     C     0.9835     0.1438     0.1449
A_2     C     0.742     0.5796     0.1072
A_2     C     0.527     0.3006     0.7924
A_1     C     0.0871     0.1528     0.445
A_0     C     0.7872     0.4988     0.9877
A_0     C     0.5191     0.4784     0.7612
A_1     C     0.6647     0.8412     0.1968
A_3     C     0.5583     0.4756     0.3434
A_0     C     0.1374     0.0396     0.9901
A_2     C     0.2421     0.1537     0.3659
A_3     C     0.0825     0.9467     0.1495
A_1     C     0.3122     0.0145     0.4005
A_0     C     0.9856     0.2121     0.3103
A_3     C     0.8921     0.0034     0.1484
A_0     C     0.7285     0.3735     0.0452
A_2     C     0.7401     0.056     0.6539
A_1     C     0.2421     0.77     0.1392
A_0     C     0.4919     0.4798     0.5406
A_1     C     0.5765     0.3626     0.7595
A_0     C     0.2659     0.4458     0.4025
A_0     C     0.6871     0.5586     0.3643
A_1     C     0.8493     0.2324     0.0267
A_1     C     0.0386     0.7512     0.1616
A_1     C     0.1372     0.3754     0.9135
A_1     C     0.1829     0.6971     0.8069
A_2     C     0.628     0.3362     0.4969
A_3     C     0.9006     0.6028     0.7726
A_3     C     0.1865     0.679     0.7833
A_2     C     0.2865     0.471     0.6378
A_2     C     0.5272     0.6586     0.8968
A_2     C     0.0621     0.9219     0.7985
A_3     C     0.3448     0.5838     0.1649
A_3     C     0.1663     0.6162     0.4278
A_1     C     0.3517     0.7048     0.5904
A_3     C     0.6742     0.7208     0.8557
A_2     C     0.1163     0.4036     0.622
A_1     C     0.587     0.1237     0.5661
A_0     C     0.7507     0.6473     0.8375
A_1     C     0.4238     0.173     0.0256
A_1     C     0.7688     0.7066     0.4071
A_3     C     0.8894     0.8252     0.74
A_2     C     0.6345     0.557     0.5471
A_3     C     0.6324     0.3464     0.1649
A_3     C     0.7996     0.9982     0.8035
A_1     C     0.8026     0.1249     0.1325
A_2     C     0.2612     0.935     0.2428
A_2     C     0.6522     0.9697     0.187
A_1     C     0.7427     0.7826     0.9629
A_0     C     0.9624     0.1118     0.4775
A_3     C     0.7012     0.7278     0.6899
A_1     C     0.6277     0.9541     0.5903
A_0     C     0.9678     0.9722     0.5039
A_3     C     0.0501     0.6283     0.5845
A_2     C     0.9349     0.101     0.006
A_2     C     0.0154     0.6505     0.6588
A_0     C     0.6964     0.6548     0.7245
A_1     C     0.5711     0.4876     0.9533
A_3     C     0.3644     0.6584     0.0678
A_2     C     0.1622     0.3866     0.2138
A_2     C     0.5772     0.9596     0.5095
A_1     C     0.4839     0.2303     0.7472
A_2     C     0.4827     0.2781     0.2272
A_2     C     0.253     0.0953     0.7595
A_0     C     0.724     0.2444     0.4306
A_0     C     0.9626     0.9526     0.5016
A_3     C     0.9535     0.661     0.0054
A_2     C     0.3627     0.8748     0.6748
A_1     C     0.8279     0.2285     0.3798
A_3     C     0.7236     0.0167     0.3415
A_2     C     0.5985     0.0711     0.9146
A_3     C     0.9306     0.1176     0.7096
A_3     C     0.4157     0.2415     0.962
A_1     C     0.9257     0.9206     0.2858
A_0     C     0.7889     0.3248     0.8678
A_2     C     0.607     0.1985     0.602
A_0     C     0.588     0.0497     0.796
A_1     C     0.7867     0.9771     0.0848
A_0     C     0.5419     0.6721     0.0313
A_2     C     0.5011     0.6262     0.2529
A_3     C     0.9807     0.7703     0.3292
A_2     C     0.4439     0.7639     0.4088
A_1     C     0.8578     0.0187     0.0715
A_1     C     0.8961     0.8082     0.9791
A_2     C     0.9372     0.809     0.7075
A_1     C     0.9758     0.1686     0.612
A_3     C     0.0815     0.9226     0.9615
A_2     C     0.9168     0.867     0.7484
A_3     C     0.7718     0.9542     0.3396
A_2     C     0.8213     0.7475     0.4567
A_2     C     0.929     0.2189     0.0065
A_0     C     0.2847     0.1832     0.0985
A_0     C     0.3886     0.6298     0.5909
A_3     C     0.9484     0.4871     0.336
A_3     C     0.2717     0.0496     0.6837
A_1     C     0.2419     0.0057     0.3776
A_2     C     0.3498     0.5574     0.3997
A_1     C     0.8997     0.4825     0.0678
A_1     C     0.8104     0.2784     0.9334
A_1     C     0.6162     0.8139     0.2669
A_0     C     0.7212     0.4809     0.8667
A_2     C     0.5352     0.3386     0.3023
A_2     C     0.7363     0.122     0.4656
A_2     C     0.1973     0.1731     0.4469
A_3     C     0.9558     0.8419     0.0354
A_2     C     0.481     0.6526     0.7894
A_0     C     0.6237     0.0878     0.0227
A_1     C     0.4107     0.401     0.4661
A_0     C     0.4023     0.6404     0.9192
A_3     C     0.1289     0.0276     0.2536
A_0     C     0.508     0.1425     0.1277
A_2     C     0.883     0.5179     0.7128
A_1     C     0.0186     0.1517     0.679
A_2     C     0.0605     0.6764     0.1511
A_0     C     0.3626     0.1976     0.2416
A_3     C     0.7037     0.3808     0.7223
A_2     C     0.7362     0.0874     0.3941
A_3     C     0.4406     0.587     0.5322
A_1     C     0.1999     0.1097     0.5887
A_0     C     0.903     0.1013     0.3198
A_3     C     0.2626     0.2179     0.0653
A_3     C     0.1159     0.0354     0.1691
A_1     C     0.5066     0.51     0.3467
A_2     C     0.4624     0.8233     0.9095
A_2     C     0.2463     0.8822     0.4491
A_2     C     0.0105     0.5492     0.2693
A_3     C     0.0666     0.3327     0.698
A_2     C     0.1191     0.7233     0.3816
A_3     C     0.9614     0.8362     0.0222
A_2     C     0.3413     0.871     0.9642
A_3     C     0.2315     0.2205     0.27
A_2     C     0.5257     0.3086     0.5698
A_3     C     0.0591     0.6728     0.6635
A_0     C     0.5403     0.807     0.1678
A_3     C     0.4961     0.7508     0.889
A_2     C     0.5028     0.964     0.2707
A_2     C     0.2883     0.4878     0.2554
A_1     C     0.5747     0.7499     0.336
A_3     C     0.7068     0.8536     0.8305
A_3     C     0.002     0.746     0.7213
A_1     C     0.05     0.3371     0.1178
A_2     C     0.2278     0.8794     0.5937
A_2     C     0.1545     0.356     0.7229
A_2     C     0.503     0.8339     0.6206
A_1     C     0.1715     0.7933     0.5319
A_3     C     0.5967     0.9768     0.7489
A_0     C     0.0863     0.7905     0.5698
A_0     C     0.6129     0.8661     0.4809
A_3     C     0.3437     0.6865     0.0284
A_2     C     0.0519     0.3789     0.3002
A_0     C     0.3063     0.7007     0.4305
A_3     C     0.846     0.6674     0.0757
A_3     C     0.7013     0.3511     0.3861
A_1     C     0.4659     0.608     0.3692
A_1     C     0.0169     0.6144     0.3519
A_3     C     0.1645     0.6854     0.6131
A_0     C     0.8698     0.6624     0.1006
A_3     C     0.3971     0.876     0.4423
A_1     C     0.9908     0.2128     0.3426
A_0     C     0.5669     0.1394     0.9989
A_2     C     0.3668     0.5502     0.3263
A_1     C     0.4425     0.0309     0.0224
A_0     C     0.0913     0.6793     0.1559
A_2     C     0.752     0.9169     0.1328
A_0     C     0.0061     0.7669     0.7968
A_0     C     0.1431     0.9766     0.7484
A_0     C     0.5029     0.4657     0.7904
A_2     C     0.0491     0.4421     0.2526
A_3     C     0.4606     0.9691     0.9328
A_2     C     0.1326     0.9034     0.6669
A_0     C     0.6742     0.0871     0.1034
A_2     C     0.0006     0.2898     0.7001
A_1     C     0.8916     0.4276     0.6591
A_2     C     0.0727     0.7207     0.7161
A_2     C     0.8977     0.1248     0.9598
A_0     C     0.431     0.4059     0.2806
A_3     C     0.5033     0.1074     0.1251
A_1     C     0.4515     0.5707     0.0168
A_0     C     0.4062     0.0488     0.0729
A_3     C     0.2347     0.5098     0.7636
A_2     C     0.0532     0.931     0.9753
A_2     C     0.3759     0.4083     0.1973
A_3     C     0.1177     0.7375     0.6322
A_1     C     0.3124     0.8501     0.691
A_2     C     0.6534     0.3726     0.1767
A_2     C     0.0697     0.9245     0.7986
A_2     C     0.4543     0.3667     0.936
A_3     C     0.5428     0.1135     0.6912
A_0     C     0.8954     0.6643     0.3837
A_1     C     0.5919     0.6639     0.3171
A_2     C     0.205     0.3036     0.4495
A_2     C     0.9017     0.3075     0.5625
A_1     C     0.4299     0.8081     0.6198
A_2     C     0.6558     0.14     0.0514
A_1     C     0.8793     0.1136     0.9119
A_1     C     0.3075     0.44     0.9314
A_2     C     0.7994     0.8477     0.2985
A_0     C     0.7922     0.9651     0.7965
A_3     C     0.0786     0.2093     0.6106
A_1     C     0.9335     0.2129     0.2012
A_1     C     0.7216     0.3887     0.6677
A_0     C     0.1805     0.2097     0.1469
A_0     C     0.6122     0.3589     0.38
A_2     C     0.2648     0.5492     0.6162
A_3     C     0.935     0.2617     0.5037
A_2     C     0.9022     0.3136     0.7194
A_0     C     0.722     0.5711     0.6144
A_2     C     0.8883     0.5081     0.5247
A_0     C     0.3782     0.2503     0.5194
A_3     C     0.1429     0.1213     0.8256
A_1     C     0.9127     0.2138     0.4947
A_1     C     0.439     0.7701     0.8353
A_1     C     0.2507     0.6359     0.3148
A_0     C     0.7907     0.6193     0.8696
A_3     C     0.1948     0.4337     0.3444
A_0     C     0.586     0.224     0.7713
A_1     C     0.393     0.1618     0.4298
A_2     C     0.5864     0.3966     0.8382
A_2     C     0.6243     0.5102     0.3496
A_1     C     0.1916     0.963     0.171
A_0     C     0.6249     0.4989     0.7625
A_0     C     0.667     0.4029     0.2751
A_2     C     0.3241     0.1205     0.5636
A_2     C     0.5861     0.992     0.3568
A_0     C     0.9254     0.4697     0.1048
A_0     C     0.6472     0.9282     0.5758
A_0     C     0.0969     0.7206     0.1929
A_0     C     0.3651     0.8252     0.9316
A_1     C     0.8676     0.914     0.9234
A_2     C     0.4442     0.6719     0.9012
A_3     C     0.6306     0.0654     0.0773
A_1     C     0.1305     0.5238     0.7154
A_0     C     0.0809     0.4141     0.0611
A_3     C     0.2375     0.4593     0.0929
A_0     C     0.1972     0.7018     0.542
A_2     C     0.8433     0.3971     0.2353
A_2     C     0.3372     0.8651     0.4044
A_0     C     0.2253     0.7018     0.1581
A_0     C     0.1688     0.5072     0.1895
A_2     C     0.5524     0.6126     0.5552
A_0     C     0.4041     0.6203     0.1889
A_3     C     0.7652     0.8934     0.7894
A_3     C     0.3379     0.2289     0.6971
A_2     C     0.4235     0.2434     0.1801
A_2     C     0.5616     0.1917     0.1788
A_1     C     0.432     0.2381     0.178
A_0     C     0.1758     0.9562     0.9604
A_0     C     0.927     0.3648     0.1065
A_3     C     0.232     0.1341     0.9785
A_1     C     0.7436     0.9071     0.2478
A_0     C     0.7584     0.2128     0.5072
A_3     C     0.6765     0.8466     0.9766
A_3     C     0.3828     0.0192     0.8532
A_0     C     0.5911     0.1894     0.8649
A_3     C     0.609     0.2021     0.3072
A_2     C     0.8078     0.883     0.8477
A_2     C     0.9921     0.1796     0.4998
A_0     C     0.4737     0.0494     0.9744
A_2     C     0.1633     0.4076     0.5357
A_1     C     0.7887     0.5929     0.2064
A_3     C     0.6901     0.9231     0.6021
A_3     C     0.772     0.0423     0.3711
A_3     C     0.6561     0.5802     0.62
A_2     C     0.1319     0.5981     0.4498
A_1     C     0.6664     0.5642     0.2385
A_2     C     0.7222     0.6668     0.3886
A_2     C     0.2167     0.5963     0.557
A_1     C     0.9378     0.4451     0.0667
A_0     C     0.5489     0.8285     0.3971
A_2     C     0.7707     0.0546     0.5779
A_2     C     0.3912     0.7306     0.2183
A_3     C     0.0555     0.9697     0.3563
A_0     C     0.1243     0.0623     0.1732
A_3     C     0.5738     0.3343     0.0116
A_3     C     0.91     0.8265     0.8166
A_0     C     0.255     0.2995     0.9275
A_3     C     0.8019     0.4762     0.8638
A_0     C     0.9096     0.5101     0.436
A_3     C     0.739     0.2704     0.4831
A_2     C     0.2628     0.7983     0.7238
A_0     C     0.3302     0.3942     0.2125
A_2     C     0.4792     0.2719     0.5478
A_0     C     0.0209     0.7743     0.3898
A_1     C     0.0015     0.8555     0.4947
A_2     C     0.9598     0.5644     0.8723
A_0     C     0.9125     0.6522     0.6562
A_2     C     0.0855     0.1212     0.9538
A_2     C     0.3192     0.7336     0.5732
A_1     C     0.0168     0.6449     0.4236
A_3     C     0.7951     0.4429     0.1411
A_1     C     0.2163     0.9534     0.1173
A_1     C     0.5256     0.4759     0.4025
A_3     C     0.688     0.6176     0.8158
A_0     C     0.5751     0.4966     0.5159
A_0     C     0.5507     0.232     0.7907
A_1     C     0.7294     0.9819     0.2192
A_1     C     0.6946     0.4128     0.7045
A_1     C     0.5972     0.0342     0.2449
A_3     C     0.4186     0.4812     0.2112
A_0     C     0.9599     0.1359     0.0759
A_2     C     0.2619     0.1683     0.6784
A_2     C     0.0188     0.9039     0.5044
A_2     C     0.554     0.5979     0.0795
A_0     C     0.9091     0.954     0.2835
A_1     C     0.9281     0.529     0.9651
A_3     C     0.749     0.5683     0.807
A_2     C     0.1709     0.6484     0.4778
A_3     C     0.1853     0.9769     0.4794
A_2     C     0.8233     0.9564     0.6863
A_1     C     0.9004     0.5389     0.8165
A_2     C     0.6266     0.1591     0.6828
A_3     C     0.0959     0.8276     0.7672
A_2     C     0.9548     0.6304     0.6176
A_2     C     0.6322     0.9609     0.8916
A_2     C     0.4245     0.8568     0.9192
A_2     C     0.9791     0.3589     0.1831
A_3     C     0.1855     0.0753     0.1812
A_1     C     0.4956     0.9334     0.2378
A_3     C     0.9839     0.3146     0.6074
A_2     C     0.938     0.3708     0.0267
A_1     C     0.3244     0.5965     0.5011
A_3     C     0.0902     0.5638     0.7675
A_3     C     0.359     0.8228     0.7717
A_0     C     0.2764     0.7913     0.7775
A_0     C     0.3197     0.6139     0.5519
A_1     C     0.7666     0.9931     0.9221
A_2     C     0.231     0.7     0.1709
A_1     C     0.6433     0.4689     0.703
A_1     C     0.922     0.7181     0.9414
A_3     C     0.8368     0.9426     0.3842
A_2     C     0.7429     0.9929     0.8003
A_1     C     0.1265     0.2899     0.3196
A_0     C     0.8978     0.845     0.9947
A_1     C     0.084     0.9375     0.3711
A_1     C     0.8999     0.9101     0.4861
A_0     C     0.3555     0.253     0.1749
A_2     C     0.4774     0.8508     0.5807
A_2     C     0.193     0.619     0.7575
A_0     C     0.1502     0.2832     0.9701
A_3     C     0.2991     0.6166     0.311
A_0     C     0.2703     0.3063     0.5538
A_0     C     0.0566     0.5437     0.0075
A_2     C     0.2636     0.5388     0.1726
A_2     C     0.2206     0.7442     0.2867
A_3     C     0.228     0.3355     0.7141
A_2     C     0.8237     0.1324     0.5735
A_3     C     0.4622     0.8962     0.5356
A_1     C     0.3493     0.5615     0.3641
A_0     C     0.5564     0.6548     0.2616
A_1     C     0.1643     0.4855     0.4688
A_2     C     0.2453     0.9663     0.9104
A_0     C     0.1987     0.2578     0.9924
A_0     C     0.6807     0.8664     0.6738
A_0     C     0.3775     0.4693     0.8849
A_3     C     0.7995     0.0692     0.1015
A_3     C     0.789     0.9939     0.058
A_1     C     0.8488     0.8268     0.1483
A_2     C     0.0743     0.479     0.8522
A_0     C     0.7856     0.9047     0.9701
A_3     C     0.8104     0.8521     0.1364
A_3     C     0.7088     0.6049     0.5067
A_3     C     0.6008     0.0596     0.4228
A_2     C     0.1589     0.3151     0.5749
A_0     C     0.009     0.4052     0.5826
A_1     C     0.9434     0.2521     0.3877
A_1     C     0.2323     0.8565     0.4001
A_1     C     0.851     0.0091     0.0657
A_1     C     0.7186     0.5563     0.1966
A_0     C     0.5385     0.3492     0.6743
A_3     C     0.3299     0.1747     0.5331
A_1     C     0.5221     0.373     0.6289
A_1     C     0.1932     0.6376     0.9667
A_2     C     0.2271     0.5795     0.5492
A_0     C     0.5734     0.0612     0.9942
A_1     C     0.1254     0.7899     0.1328
A_2     C     0.2827     0.0006     0.7271
A_1     C     0.9996     0.1814     0.6455
A_0     C     0.3362     0.587     0.7956
A_3     C     0.3116     0.5169     0.4817
A_0     C     0.1847     0.0141     0.958
A_1     C     0.106     0.1705     0.3022
A_0     C     0.9406     0.2727     0.8106
A_2     C     0.9064     0.1473     0.5375
A_3     C     0.9742     0.4802     0.0128
A_1     C     0.5795     0.6048     0.165
A_2     C     0.8623     0.5772     0.6569
A_3     C     0.5928     0.7571     0.5899
A_0     C     0.4709     0.1229     0.2318
A_0     C     0.1424     0.1793     0.4566
A_0     C     0.3523     0.5847     0.5713
A_2     C     0.9088     0.6458     0.2815
A_1     C     0.9487     0.5553     0.6583
A_3     C     0.2966     0.5289     0.2404
A_1     C     0.1183     0.1485     0.7657
A_2     C     0.7647     0.6075     0.622
A_2     C     0.8034     0.5546     0.3122
A_1     C     0.0253     0.4384     0.2222
A_3     C     0.3268     0.6254     0.7067
A_3     C     0.0614     0.2814     0.7029
A_3     C     0.1626     0.2769     0.6216
A_1     C     0.2373     0.5471     0.8176
A_3     C     0.3526     0.4082     0.9508
A_0     C     0.735     0.4915     0.2329
A_0     C     0.0797     0.1639     0.1832
A_1     C     0.4511     0.0117     0.8687
A_2     C     0.826     0.7916     0.1686
A_0     C     0.3011     0.1048     0.5406
A_3     C     0.6841     0.1093     0.4076
A_3     C     0.7107     0.7052     0.712
A_0     C     0.9009     0.8117     0.6772
A_2     C     0.5813     0.496     0.261
A_2     C     0.614     0.1637     0.355
A_1     C     0.7099     0.2832     0.1745
A_1     C     0.352     0.2113     0.4358
A_0     C     0.7676     0.4202     0.0358
A_1     C     0.8878     0.2614     0.2755
A_0     C     0.0872     0.5013     0.8677
A_2     C     0.7436     0.5316     0.8244
A_1     C     0.9218     0.3011     0.1208
A_3     C     0.2316     0.8382     0.0133
A_1     C     0.136     0.4679     0.0243
A_1     C     0.5201     0.0271     0.6398
A_1     C     0.3054     0.3035     0.389
A_2     C     0.4374     0.429     0.5057
A_2     C     0.983     0.8854     0.2507
A_0     C     0.8564     0.9157     0.2104
A_1     C     0.2912     0.8854     0.5764
A_0     C     0.7814     0.9829     0.8793
A_0     C     0.2165     0.1107     0.9472
A_2     C     0.2701     0.1876     0.6794
A_0     C     0.4142     0.973     0.7517
A_2     C     0.2242     0.3811     0.3801
A_3     C     0.1574     0.1184     0.2582
A_0     C     0.4953     0.0449     0.4935
A_2     C     0.502     0.3551     0.7023
A_3     C     0.4477     0.8978     0.2986
A_2     C     0.6463     0.1859     0.8684
A_0     C     0.0924     0.2606     0.1225
A_3     C     0.3543     0.9601     0.7137
A_3     C     0.3492     0.0234     0.7353
A_0     C     0.6007     0.004     0.3357
A_2     C     0.9531     0.7788     0.6542
A_3     C     0.8351     0.1743     0.5432
A_1     C     0.5836     0.9154     0.3184
A_2     C     0.3162     0.0126     0.7727
A_3     C     0.1312     0.157     0.8997
A_1     C     0.381     0.876     0.2509
A_1     C     0.0416     0.5122     0.8336
A_0     C     0.7989     0.6104     0.6433
A_1     C     0.8466     0.8129     0.3178
A_1     C     0.9393     0.2671     0.3001
A_2     C     0.0659     0.3652     0.0063
A_0     C     0.2379     0.1747     0.6732
A_0     C     0.6813     0.4773     0.979
A_3     C     0.0226     0.1012     0.4673
A_1     C     0.2222     0.2457     0.6559
A_1     C     0.4116     0.6622     0.1211
A_3     C     0.8715     0.4936     0.7892
A_2     C     0.0434     0.7756     0.7986
A_3     C     0.9202     0.5253     0.9951
A_0     C     0.3971     0.5187     0.2579
A_0     C     0.111     0.0581     0.7531
A_3     C     0.4109     0.066     0.5032
A_1     C     0.6414     0.475     0.0608
A_3     C     0.6496     0.4595     0.2179
A_1     C     0.262     0.6355     0.4886
A_1     C     0.6659     0.9021     0.9195
A_0     C     0.8411     0.8099     0.9355
A_0     C     0.4805     0.0243     0.8172
A_3     C     0.5001     0.5652     0.6613
A_1     C     0.079     0.4285     0.5468
A_1     C     0.3456     0.7275     0.5469
A_0     C     0.3172     0.4813     0.9718
A_0     C     0.7861     0.6991     0.9545
A_3     C     0.6783     0.6714     0.2504
A_3     C     0.1488     0.1196     0.6921
A_1     C     0.6473     0.881     0.7776
A_1     C     0.6173     0.5855     0.2505
A_3     C     0.5393     0.5735     0.3175
A_2     C     0.4298     0.9417     0.604
A_3     C     0.4491     0.1776     0.1119
A_0     C     0.0392     0.5194     0.4064
A_1     C     0.5491     0.1386     0.481
A_2     C     0.5536     0.8994     0.9634
A_2     C     0.5171     0.9586     0.34
A_1     C     0.1096     0.545     0.3246
A_2     C     0.0464     0.5933     0.4192
A_2     C     0.3579     0.4587     0.2863
A_3     C     0.4942     0.6994     0.2162
A_2     C     0.4952     0.7835     0.1132
A_0     C     0.4968     0.1275     0.2261
A_2     C     0.4207     0.3591     0.4959
A_2     C     0.4378     0.6948     0.5287
A_1     C     0.8134     0.5053     0.8549
A_0     C     0.9011     0.2861     0.2563
A_1     C     0.498     0.056     0.2152
A_2     C     0.7039     0.2381     0.5619
A_0     C     0.7754     0.3596     0.442
A_1     C     0.638     0.2039     0.3923
A_0     C     0.1814     0.5752     0.1409
A_3     C     0.1131     0.3257     0.2175
A_0     C     0.8161     0.044     0.1971
A_2     C     0.6179     0.6335     0.9115
A_0     C     0.3636     0.726     0.4884
A_1     C     0.0883     0.6993     0.1044
A_3     C     0.1078     0.9261     0.6059
A_2     C     0.1114     0.1681     0.5661
A_0     C     0.3697     0.0326     0.1592
A_1     C     0.8467     0.15     0.8426
A_2     C     0.3918     0.7886     0.6329
A_3     C     0.674     0.4314     0.3001
A_2     C     0.9075     0.5422     0.1571
A_1     C     0.4999     0.2704     0.1395
A_1     C     0.5873     0.1535     0.6598
A_0     C     0.7582     0.2115     0.3641
A_3     C     0.0522     0.3422     0.3496
A_3     C     0.4763     0.3696     0.6478
A_3     C     0.6854     0.1221     0.8458
A_1     C     0.8836     0.3361     0.4131
A_0     C     0.4985     0.4382     0.5699
A_0     C     0.9756     0.6595     0.6378
A_2     C     0.177     0.847     0.4851
A_3     C     0.7063     0.1611     0.6855
A_3     C     0.6458     0.8329     0.2305
A_1     C     0.8683     0.0578     0.5949
A_1     C     0.5613     0.4217     0.024
A_3     C     0.0637     0.6309     0.1664
A_1     C     0.3146     0.9757     0.6208
A_0     C     0.7998     0.6369     0.7863
A_3     C     0.9116     0.9483     0.008
A_1     C     0.0324     0.4675     0.5032
A_0     C     0.2518     0.7536     0.3282
A_2     C     0.3139     0.5879     0.4931
A_2     C     0.5953     0.9126     0.9063
A_3     C     0.5332     0.1264     0.7409
A_1     C     0.8126     0.8173     0.28
A_2     C     0.1759     0.2045     0.8728
A_2     C     0.2575     0.0014     0.3669
A_1     C     0.6658     0.7587     0.7677
A_2     C     0.4993     0.683     0.7818
A_1     C     0.9545     0.1293     0.4206
A_1     C     0.8831     0.159     0.2946
A_0     C     0.1777     0.2788     0.176
A_0     C     0.9989     0.3413     0.4495
A_3     C     0.5132     0.7847     0.2253
A_1     C     0.3971     0.5297     0.6388
A_3     C     0.5641     0.7917     0.4135
A_1     C     0.0942     0.6326     0.5686
A_0     C     0.3424     0.8172     0.3937
A_2     C     0.7542     0.7137     0.0004
A_3     C     0.0342     0.2725     0.2775
A_3     C     0.3964     0.3024     0.1545
A_2     C     0.2541     0.6471     0.9817
A_3     C     0.4324     0.0965     0.1587
A_3     C     0.7377     0.4415     0.6071
A_2     C     0.6952     0.7176     0.1008
A_1     C     0.3828     0.6037     0.9296
A_1     C     0.5409     0.4587     0.9693
A_2     C     0.414     0.6137     0.2807
A_0     C     0.3339     0.5184     0.0566
A_2     C     0.6334     0.4157     0.9067
A_0     C     0.446     0.3307     0.1142
A_1     C     0.3306     0.8734     0.2205
A_3     C     0.2748     0.5967     0.2935
A_2     C     0.4788     0.5951     0.5072
A_2     C     0.2744     0.1634     0.1409
A_1     C     0.5628     0.1783     0.2875
A_3     C     0.0982     0.4695     0.8888
A_3     C     0.1187     0.9074     0.8575
A_3     C     0.0297     0.6537     0.8934
A_1     C     0.7988     0.0298     0.9552
A_2     C     0.9064     0.4442     0.2165
A_1     C     0.6528     0.0559     0.5042
A_3     C     0.7272     0.8639     0.3895
A_2     C     0.0742     0.7826     0.3263
A_1     C     0.3955     0.5127     0.0738
A_0     C     0.1176     0.1323     0.8705
A_3     C     0.2555     0.4565     0.8723
A_1     C     0.274     0.7616     0.9917
A_3     C     0.7683     0.4188     0.7913
A_0     C     0.0001     0.1998     0.34
A_1     C     0.5005     0.2124     0.9164
A_1     C     0.0568     0.0296     0.9526
A_0     C     0.7342     0.3748     0.4156
A_2     C     0.6946     0.1005     0.8055
A_0     C     0.2469     0.7864     0.9142
A_0     C     0.4674     0.081     0.5828
A_2     C     0.3518     0.4811     0.8699
A_3     C     0.1925     0.3799     0.7764
A_1     C     0.9204     0.952     0.6005
A_0     C     0.4603     0.853     0.6313
A_0     C     0.6535     0.1774     0.4535
A_3     C     0.0084     0.9856     0.3147
A_0     C     0.2025     0.3854     0.6809
A_2     C     0.8889     0.0734     0.2424
A_2     C     0.3065     0.0679     0.9802
A_2     C     0.4972     0.8851     0.5336
A_2     C     0.0365     0.1764     0.1859
A_3     C     0.1852     0.8297     0.4669
A_1     C     0.8722     0.4181     0.8092
A_2     C     0.8688     0.8686     0.6286
A_3     C     0.7108     0.7236     0.1836
A_3     C     0.365     0.6384     0.9626
A_2     C     0.8162     0.3206     0.8879
A_3     C     0.0508     0.3409     0.9774
A_0     C     0.7262     0.3738     0.0601
A_0     C     0.0192     0.7541     0.9019
A_0     C     0.0487     0.4464     0.6776
A_0     C     0.0834     0.848     0.9122
A_0     C     0.0963     0.475     0.6895
A_2     C     0.595     0.0458     0.4468
A_2     C     0.9319     0.7275     0.7775
A_2     C     0.7892     0.3092     0.9111
A_2     C     0.7335     0.8523     0.576
A_1     C     0.8644     0.7576     0.6709
A_0     C     0.0762     0.5259     0.0923
A_0     C     0.6762     0.286     0.0109
A_0     C     0.4615     0.6521     0.4661
A_0     C     0.1607     0.8187     0.6156
A_3     C     0.4564     0.1436     0.3603
A_1     C     0.1867     0.334     0.6059
A_0     C     0.8945     0.4275     0.5576
A_2     C     0.8013     0.6658     0.7586
A_2     C     0.0666     0.483     0.3218
A_0     C     0.3911     0.1     0.6398
A_3     C     0.5029     0.3958     0.4519
A_0     C     0.3164     0.0414     0.7947
A_0     C     0.8344     0.098     0.2321
A_3     C     0.8251     0.4918     0.6212
A_0     C     0.7993     0.9885     0.6577
A_1     C     0.8937     0.2392     0.7967
A_1     C     0.6116     0.3594     0.9139
A_3     C     0.6731     0.4267     0.1004
A_3     C     0.0097     0.5915     0.0409
A_1     C     0.6179     0.8227     0.3083
A_3     C     0.2681     0.0547     0.4408
A_2     C     0.2891     0.1593     0.996
A_1     C     0.0421     0.6804     0.4603
A_0     C     0.9909     0.4041     0.3671
A_0     C     0.281     0.9954     0.4417
A_2     C     0.5336     0.7703     0.9744
A_2     C     0.1575     0.4639     0.0087
A_1     C     0.3886     0.6193     0.0166
A_0     C     0.3509     0.1801     0.2967
A_0     C     0.9901     0.6522     0.7708
A_2     C     0.328     0.0159     0.7789
A_2     C     0.32     0.5993     0.6395
A_1     C     0.6817     0.8648     0.7632
A_1     C     0.768     0.4501     0.6722
A_0     C     0.9535     0.7459     0.3245
A_1     C     0.2214     0.184     0.4912
A_2     C     0.5181     0.4419     0.6096
A_0     C     0.7985     0.8514     0.1351
A_3     C     0.0555     0.3918     0.9743
A_3     C     0.8884     0.8836     0.9433
A_3     C     0.1895     0.2825     0.2559
A_1     C     0.9144     0.5313     0.7444
A_0     C     0.895     0.6345     0.037
A_2     C     0.3038     0.5678     0.8943
A_1     C     0.4213     0.4987     0.1161
A_3     C     0.8294     0.0111     0.4751
A_0     C     0.2176     0.409     0.9291
A_0     C     0.5916     0.3844     0.538
A_3     C     0.7425     0.3958     0.0135
A_1     C     0.597     0.321     0.8623
A_0     C     0.3415     0.6423     0.0301
A_0     C     0.4149     0.2089     0.4127
A_2     C     0.6365     0.1054     0.0863
A_0     C     0.8791     0.2007     0.2626
A_2     C     0.1467     0.5023     0.6636
A_3     C     0.7362     0.5004     0.3324
A_0     C     0.4321     0.3652     0.6576
A_1     C     0.1997     0.842     0.3603
A_0     C     0.4238     0.3541     0.0661
A_3     C     0.764     0.4688     0.8478
A_0     C     0.9258     0.4355     0.8622
A_3     C     0.5546     0.6702     0.2481
A_0     C     0.1267     0.4224     0.8631
A_2     C     0.5662     0.8017     0.1416
A_1     C     0.6839     0.0264     0.6583
A_1     C     0.2099     0.8181     0.6273
A_2     C     0.5946     0.605     0.7872
A_0     C     0.0071     0.599     0.2025
A_3     C     0.8651     0.3116     0.7536
A_0     C     0.1865     0.1459     0.8862
A_1     C     0.9695     0.5685     0.3355
A_2     C     0.2632     0.9964     0.9235
A_2     C     0.8906     0.1284     0.5776
A_1     C     0.5303     0.4995     0.8953
A_3     C     0.0326     0.0122     0.5857
A_3     C     0.1502     0.4508     0.0098
A_3     C     0.3513     0.1045     0.5461
A_1     C     0.7734     0.2798     0.2741
A_1     C     0.8781     0.022     0.455
A_2     C     0.702     0.4367     0.3372
A_1     C     0.4403     0.7642     0.1635
A_3     C     0.207     0.3299     0.1479
A_1     C     0.6734     0.2269     0.7656
A_1     C     0.8557     0.7506     0.9274
A_0     C     0.4371     0.2108     0.4454
A_3     C     0.1562     0.586     0.8993
A_0     C     0.9196     0.0123     0.2207
A_2     C     0.8897     0.8743     0.5304
A_3     C     0.8307     0.9451     0.4571
A_2     C     0.506     0.3547     0.1306
A_2     C     0.5121     0.0982     0.3537
A_3     C     0.1124     0.5229     0.5243
A_3     C     0.265     0.8004     0.1349
A_0     C     0.7502     0.4089     0.4756
A_2     C     0.5424     0.4245     0.7331
A_3     C     0.47     0.1226     0.1402
A_0     C     0.4692     0.6741     0.3328
A_2     C     0.1403     0.6781     0.7508
A_2     C     0.834     0.9378     0.0964
A_0     C     0.3302     0.2766     0.753
A_0     C     0.7489     0.8279     0.9586
A_1     C     0.2909     0.9258     0.9521
A_3     C     0.8983     0.6963     0.1244
A_2     C     0.4867     0.1403     0.359
A_2     C     0.6043     0.9771     0.8311
A_3     C     0.9414     0.2908     0.7258
A_2     C     0.313     0.6237     0.7957
A_2     C     0.6524     0.2537     0.4686
A_0     C     0.0263     0.1213     0.9765
A_3     C     0.9757     0.7326     0.9312
A_2     C     0.4271     0.8057     0.9527
A_2     C     0.0327     0.4141     0.8687
A_1     C     0.1852     0.7686     0.2741
A_1     C     0.4583     0.1772     0.6376
A_2     C     0.2285     0.9644     0.0662
A_0     C     0.0999     0.595     0.4761
A_3     C     0.123     0.4226     0.3317
A_3     C     0.9074     0.2578     0.45
A_0     C     0.7107     0.3987     0.3827
A_1     C     0.2076     0.9219     0.4886
A_0     C     0.0202     0.3564     0.7019
A_0     C     0.3685     0.0273     0.2422
A_2     C     0.978     0.7795     0.7341
A_0     C     0.9748     0.7615     0.1916
A_0     C     0.6342     0.0796     0.0605
A_3     C     0.6489     0.3309     0.1108
A_3     C     0.419     0.8867     0.7387
A_0     C     0.7958     0.125     0.8117
A_0     C     0.9377     0.6361     0.2104
A_1     C     0.6362     0.5397     0.1959
A_0     C     0.4728     0.2203     0.9399
A_2     C     0.9598     0.1076     0.7334
A_0     C     0.754     0.3657     0.582
A_2     C     0.3442     0.8128     0.3532
A_0     C     0.6855     0.5498     0.5395
A_2     C     0.1597     0.8273     0.5265
A_0     C     0.7841     0.4191     0.9925
A_1     C     0.2933     0.596     0.3832
A_0     C     0.7926     0.2596     0.0283
A_0     C     0.3283     0.9827     0.597
A_2     C     0.7287     0.7898     0.4903
A_1     C     0.7641     0.5226     0.1743
A_2     C     0.8128     0.7737     0.5421
A_0     C     0.1069     0.3987     0.9429
A_0     C     0.9757     0.3305     0.896
A_0     C     0.5221     0.906     0.7049
A_3     C     0.816     0.4109     0.9337
A_2     C     0.6798     0.4176     0.9746
A_3     C     0.6284     0.4799     0.2777
A_1     C     0.7954     0.3809     0.9085
A_0     C     0.3925     0.8332     0.8757
A_1     C     0.9004     0.2731     0.0243
A_0     C     0.5508     0.0807     0.5725
A_1     C     0.3955     0.4485     0.9722
A_0     C     0.5855     0.2743     0.9409
A_0     C     0.1331     0.374     0.6433
A_3     C     0.599     0.5191     0.0094
A_3     C     0.7839     0.0204     0.3063
A_1     C     0.7228     0.993     0.5548
A_3     C     0.5009     0.301     0.6613
A_0     C     0.2746     0.2548     0.4133
A_0     C     0.2029     0.0125     0.1547
A_1     C     0.8803     0.6295     0.3791
A_1     C     0.3277     0.0107     0.3368
A_2     C     0.7976     0.7709     0.4699
A_2     C     0.1814     0.0801     0.1024
A_0     C     0.8477     0.2913     0.4521
A_0     C     0.3982     0.3599     0.6074
A_2     C     0.7413     0.5614     0.2845
A_1     C     0.8868     0.3106     0.7821
A_3     C     0.4414     0.9821     0.0235
A_2     C     0.8743     0.0426     0.1172
A_2     C     0.238     0.9888     0.3098
A_3     C     0.2301     0.109     0.6079
A_0     C     0.3524     0.1904     0.0527
A_3     C     0.5089     0.0784     0.0435
A_1     C     0.398     0.7457     0.2331
A_2     C     0.375     0.9777     0.4416
A_2     C     0.5251     0.1105     0.7331
A_1     C     0.7096     0.4673     0.7697
A_0     C     0.5828     0.1765     0.3568
A_3     C     0.5008     0.9642     0.9603
A_3     C     0.0545     0.0288     0.0151
A_3     C     0.1702     0.8602     0.6949
A_1     C     0.9556     0.1909     0.3067
A_0     C     0.196     0.1033     0.2606
A_0     C     0.2474     0.9985     0.2088
A_1     C     0.0873     0.0807     0.1676
A_1     C     0.3739     0.8619     0.8868
A_3     C     0.514     0.2911     0.9793
A_3     C     0.1065     0.2405     0.0543
A_0     C     0.4592     0.3003     0.5453
A_1     C     0.2096     0.7382     0.2539
A_1     C     0.7383     0.2692     0.4892
A_0     C     0.3024     0.3568     0.1252
A_0     C     0.6345     0.0653     0.8709
A_0     C     0.9248     0.881     0.438
A_2     C     0.138     0.9758     0.3384
A_3     C     0.6558     0.2016     0.9448
A_0     C     0.1591     0.9284     0.0648
A_1     C     0.2131     0.3925     0.907
A_1     C     0.0755     0.0095     0.4646
A_0     C     0.7917     0.6991     0.4611
A_0     C     0.7741     0.2307     0.0576
A_2     C     0.881     0.1066     0.5809
A_0     C     0.0287     0.4176     0.1462
A_2     C     0.8128     0.7102     0.3301
A_3     C     0.7873     0.8486     0.0584
A_3     C     0.0855     0.9579     0.1321
A_2     C     0.9087     0.1352     0.298
A_2     C     0.2834     0.7481     0.5579
A_2     C     0.2648     0.7111     0.7084
A_2     C     0.5477     0.351     0.988
A_3     C     0.7895     0.7252     0.8151
A_0     C     0.0275     0.5693     0.4348
A_3     C     0.8968     0.2494     0.0205
A_0     C     0.3031     0.8176     0.0354
A_1     C     0.3677     0.9392     0.1188
A_0     C     0.9818     0.8879     0.9029
A_1     C     0.3915     0.3397     0.4019
A_2     C     0.8232     0.2191     0.443
A_1     C     0.8789     0.4762     0.0565
A_2     C     0.2473     0.4086     0.0458
A_1     C     0.5881     0.1349     0.6759
A_3     C     0.7499     0.4745     0.9923
A_1     C     0.7538     0.3971     0.5495
A_2     C     0.7648     0.82     0.0689
A_2     C     0.0147     0.313     0.4094
A_3     C     0.4179     0.8664     0.6493
A_3     C     0.5064     0.6161     0.9586
A_3     C     0.6586     0.4701     0.563
A_2     C     0.6454     0.7782     0.503
A_1     C     0.2994     0.6226     0.0513
A_1     C     0.157     0.0898     0.6741
A_0     C     0.3344     0.3217     0.7835
A_0     C     0.5232     0.5692     0.0178
A_3     C     0.9566     0.8443     0.1994
A_2     C     0.506     0.0417     0.0632
A_2     C     0.2061     0.309     0.4664
A_1     C     0.2718     0.791     0.6162
A_0     C     0.5815     0.0077     0.5082
A_2     C     0.0648     0.1159     0.7294
A_0     C     0.6967     0.6893     0.2535
A_3     C     0.2881     0.6085     0.5775
A_0     C     0.0622     0.1266     0.502
A_3     C     0.7666     0.7456     0.034
A_3     C     0.6407     0.454     0.0334
A_1     C     0.1428     0.5731     0.2894
A_0     C     0.3216     0.4528     0.1113
A_1     C     0.1661     0.7911     0.5639
A_2     C     0.2199     0.3518     0.2634
A_1     C     0.4816     0.3209     0.394
A_1     C     0.1211     0.95     0.5295
A_0     C     0.5794     0.6091     0.2161
A_1     C     0.9543     0.1349     0.8996
A_1     C     0.7918     0.4214     0.8038
A_2     C     0.3406     0.2483     0.7513
A_2     C     0.9743     0.5882     0.3843
A_3     C     0.0319     0.95     0.4775
A_1     C     0.1848     0.3624     0.3174
A_1     C     0.2068     0.4501     0.4554
A_0     C     0.3222     0.2852     0.2888
A_0     C     0.4646     0.6906     0.9575
A_1     C     0.0448     0.1071     0.142
A_2     C     0.4389     0.7089     0.3704
A_3     C     0.8712     0.5035     0.6353
A_1     C     0.1029     0.9279     0.927
A_0     C     0.6094     0.5651     0.3648
A_0     C     0.6862     0.5145     0.7082
A_3     C     0.4893     0.6194     0.0458
A_3     C     0.1691     0.7583     0.3715
A_0     C     0.7257     0.641     0.8638
A_0     C     0.2295     0.8993     0.2736
A_3     C     0.9142     0.2187     0.4563
A_0     C     0.5357     0.518     0.3002
A_3     C     0.012     0.561     0.3446
A_0     C     0.3407     0.664     0.3447
A_3     C     0.6205     0.8972     0.7993
A_1     C     0.9753     0.9993     0.905
A_1     C     0.0263     0.1665     0.0398
A_2     C     0.2958     0.3875     0.8333
A_3     C     0.8699     0.9282     0.0764
A_2     C     0.1003     0.5755     0.774
A_0     C     0.4313     0.2159     0.41
A_2     C     0.1685     0.7839     0.8648
A_0     C     0.2922     0.955     0.273
A_0     C     0.9477     0.4511     0.9678
A_1     C     0.8575     0.1323     0.4729
A_0     C     0.473     0.6615     0.0268
A_1     C     0.7615     0.1352     0.3472
A_0     C     0.1548     0.5991     0.8369
A_0     C     0.4557     0.032     0.5416
A_2     C     0.1161     0.4986     0.0474
A_3     C     0.8826     0.1043     0.1223
A_1     C     0.7844     0.6893     0.385
A_0     C     0.4088     0.2912     0.0692
A_1     C     0.9287     0.5194     0.2699
A_1     C     0.1662     0.074     0.6136
A_2     C     0.6235     0.4163     0.8123
A_0     C     0.2967     0.7482     0.7632
A_0     C     0.8389     0.1324     0.078
A_3     C     0.7167     0.2938     0.8504
A_2     C     0.8542     0.0249     0.6026
A_0     C     0.4521     0.7009     0.7272
A_3     C     0.7441     0.0592     0.1361
A_2     C     0.2567     0.4956     0.6534
A_1     C     0.2272     0.9547     0.8367
A_2     C     0.1583     0.6544     0.9208
A_0     C     0.9308     0.6116     0.6933
A_3     C     0.2039     0.2748     0.5671
A_1     C     0.1519     0.1506     0.8838
A_2     C     0.6983     0.5025     0.459
A_3     C     0.8743     0.5447     0.7921
A_3     C     0.7587     0.8971     0.028
A_2     C     0.1315     0.4765     0.0105
A_3     C     0.3395     0.23     0.9761
A_3     C     0.6007     0.4075     0.3709
A_2     C     0.0626     0.3511     0.227
A_0     C     0.9098     0.1241     0.7265
A_3     C     0.2618     0.169     0.406
A_3     C     0.6692     0.7939     0.1412
A_0     C     0.029     0.6356     0.9681
A_2     C     0.7934     0.0358     0.3075
A_0     C     0.9195     0.3227     0.3339
A_0     C     0.4056     0.6009     0.1577
A_1     C     0.7979     0.6619     0.7449
A_3     C     0.5164     0.761     0.473
A_1     C     0.4028     0.3715     0.3946
A_1     C     0.5698     0.2151     0.2993
A_1     C     0.6788     0.7071     0.4156
A_0     C     0.8691     0.5455     0.0003
A_0     C     0.9349     0.0665     0.5311
A_1     C     0.3811     0.7753     0.5825
A_0     C     0.9991     0.4582     0.8621
A_1     C     0.2353     0.5809     0.425
A_0     C     0.0843     0.916     0.1271
A_3     C     0.2746     0.1921     0.1291
A_0     C     0.4768     0.8699     0.1554
A_2     C     0.0958     0.4109     0.1041
A_0     C     0.8764     0.5995     0.8439
A_0     C     0.9078     0.5026     0.2509
A_3     C     0.0442     0.9076     0.3226
A_1     C     0.0219     0.1915     0.4441
A_1     C     0.0503     0.7232     0.3315
A_3     C     0.9179     0.8181     0.6411
A_0     C     0.6198     0.3097     0.0503
A_1     C     0.1791     0.3824     0.0877
A_0     C     0.9523     0.735     0.7059
A_1     C     0.3502     0.1483     0.1106
A_3     C     0.9923     0.7703     0.4574
A_1     C     0.1666     0.528     0.5392
A_2     C     0.5912     0.517     0.8409
A_2     C     0.4954     0.8615     0.5851
A_3     C     0.6449     0.5357     0.7325
A_0     C     0.1459     0.4962     0.4583
A_2     C     0.9031     0.056     0.7107
A_3     C     0.5276     0.4947     0.2211
A_0     C     0.4281     0.8956     0.7135
A_3     C     0.7838     0.6779     0.0763
A_3     C     0.9183     0.474     0.0081
A_2     C     0.4457     0.92     0.0414
A_2     C     0.8554     0.2114     0.7237
A_3     C     0.8478     0.7405     0.4359
A_0     C     0.2518     0.1906     0.9247
A_3     C     0.529     0.1391     0.9929
A_2     C     0.6691     0.7448     0.6435
A_2     C     0.7458     0.8871     0.8766
A_1     C     0.9005     0.8794     0.2971
A_2     C     0.6512     0.0472     0.2134
A_0     C     0.3267     0.7362     0.8426
A_1     C     0.8098     0.9205     0.2999
A_1     C     0.3285     0.1517     0.8595
A_2     C     0.4287     0.3801     0.7526
A_3     C     0.5997     0.3912     0.0026
A_0     C     0.5001     0.4456     0.3067
A_0     C     0.5353     0.8564     0.8737
A_3     C     0.5055     0.6478     0.6559
A_1     C     0.809     0.6717     0.7957
A_0     C     0.1968     0.3337     0.1694
A_0     C     0.8729     0.7146     0.6562
A_2     C     0.0759     0.328     0.0507
A_1     C     0.7461     0.4082     0.3024
A_2     C     0.3615     0.7468     0.9398
A_0     C     0.7545     0.3055     0.9755
A_0     C     0.1226     0.5206     0.2363
A_3     C     0.4873     0.4181     0.7624
A_3     C     0.2745     0.4332     0.4613
A_3     C     0.4308     0.1849     0.5321
A_2     C     0.1685     0.3609     0.3116
A_3     C     0.9856     0.6037     0.9683
A_1     C     0.4464     0.522     0.6582
A_1     C     0.5959     0.3535     0.1436
A_3     C     0.0018     0.7845     0.8015
A_2     C     0.457     0.9044     0.3715
A_1     C     0.9216     0.5552     0.1595
A_3     C     0.419     0.8042     0.165
A_0     C     0.9135     0.645     0.5444
A_2     C     0.1695     0.8209     0.8269
A_3     C     0.2986     0.3209     0.5001
A_2     C     0.8595     0.6594     0.7686
A_0     C     0.2058     0.1015     0.6069
A_2     C     0.6761     0.5998     0.4826
A_0     C     0.9656     0.3378     0.053
A_3     C     0.4577     0.5817     0.057
A_0     C     0.1166     0.306     0.7895
A_1     C     0.7065     0.517     0.4023
A_3     C     0.3902     0.8135     0.8629
A_2     C     0.6872     0.0166     0.1404
A_2     C     0.9401     0.1612     0.6347
A_3     C     0.3027     0.8164     0.7028
A_2     C     0.4095     0.3728     0.4763
A_1     C     0.0668     0.6876     0.488
A_3     C     0.8806     0.3874     0.3871
A_2     C     0.4722     0.2803     0.9378
A_1     C     0.9832     0.1803     0.8077
A_1     C     0.9755     0.8192     0.5963
A_2     C     0.6852     0.2337     0.2059
A_0     C     0.1838     0.3542     0.3464
A_3     C     0.0716     0.133     0.8233
A_1     C     0.9115     0.163     0.617
A_1     C     0.6907     0.8533     0.134
A_2     C     0.6741     0.4412     0.3951
A_3     C     0.3912     0.2585     0.4797
A_3     C     0.8514     0.5417     0.9763
A_2     C     0.3817     0.9874     0.4771
A_2     C     0.4794     0.2317     0.6315
A_0     C     0.1115     0.5552     0.9154
A_1     C     0.2847     0.6284     0.9911
A_1     C     0.3247     0.4511     0.7042
A_2     C     0.4639     0.6065     0.4392
A_1     C     0.8602     0.2836     0.5928
A_2     C     0.1277     0.9169     0.8862
A_3     C     0.058     0.0179     0.5599
A_3     C     0.3285     0.1869     0.8767
A_1     C     0.314     0.8262     0.8276
A_1     C     0.5635     0.4479     0.8955
A_2     C     0.8245     0.9968     0.3331
A_3     C     0.9456     0.5792     0.904
A_2     C     0.4152     0.0232     0.6978
A_0     C     0.1249     0.3952     0.693
A_1     C     0.2802     0.6936     0.9979
