MAT-39

loop_
_symmetry_equiv_pos_as_xyz
  x,y,z
_cell_length_a          46.5877
_cell_length_b          34.1759
_cell_length_c          15.1917
_cell_angle_alpha       90.0000
_cell_angle_beta        90.0000
_cell_angle_gamma       90.0000
loop_
_atom_site_label
_atom_site_type_symbol
_atom_site_fract_x
_atom_site_fract_y
_atom_site_fract_z
A_2     C     0.0806     0.3051     0.8801
A_2     C     0.4923     0.6562     0.1135
A_1     C     0.1743     0.4292     0.2271
A_1     C     0.8362     0.2047     0.6266
A_1     C     0.8016     0.5417     0.2365
A_2     C     0.9631     0.5453     0.4504
A_2     C     0.1245     0.4553     0.2671
A_0     C     0.1809     0.1446     0.1321
A_0     C     0.3227     0.9797     0.467
A_3     C     0.9206     0.4468     0.3795
A_3     C     0.5538     0.3914     0.4243
A_1     C     0.437     0.5934     0.5307
A_3     C     0.947     0.6888     0.9316
A_3     C     0.8893     0.9486     0.9598
A_0     C     0.7194     0.9891     0.4324
A_3     C     0.1836     0.8356     0.3794
A_3     C     0.4214     0.7632     0.9349
A_0     C     0.3865     0.0065     0.3373
A_2     C     0.6357     0.61     0.3115
A_2     C     0.2615     0.971     0.7879
A_3     C     0.2566     0.8444     0.9711
A_0     C     0.2273     0.5915     0.5325
A_3     C     0.083     0.1769     0.9552
A_0     C     0.5488     0.9121     0.6658
A_0     C     0.9501     0.446     0.6205
A_1     C     0.2636     0.3589     0.6707
A_2     C     0.8396     0.7081     0.7894
A_0     C     0.8487     0.5059     0.9963
A_1     C     0.8724     0.8135     0.6243
A_1     C     0.3579     0.9498     0.613
A_3     C     0.6855     0.127     0.4639
A_1     C     0.8207     0.393     0.3547
A_3     C     0.7892     0.0802     0.2945
A_0     C     0.8212     0.2069     0.9612
A_2     C     0.4936     0.706     0.8978
A_0     C     0.8348     0.4558     0.1876
A_2     C     0.0797     0.4726     0.1076
A_0     C     0.6732     0.0619     0.2954
A_1     C     0.5629     0.6269     0.9179
A_1     C     0.2638     0.6356     0.2232
A_3     C     0.9596     0.2576     0.055
A_3     C     0.1525     0.1386     0.4941
A_3     C     0.8449     0.2835     0.4002
A_1     C     0.8737     0.921     0.0404
A_1     C     0.2267     0.0336     0.0576
A_0     C     0.3001     0.2946     0.2834
A_3     C     0.6557     0.5812     0.6249
A_0     C     0.9016     0.5958     0.7597
A_3     C     0.4956     0.8737     0.5539
A_0     C     0.0162     0.5707     0.7978
A_3     C     0.7464     0.8635     0.9818
A_0     C     0.0356     0.3934     0.6427
A_0     C     0.1519     0.0589     0.4181
A_0     C     0.3007     0.5579     0.9575
A_1     C     0.3965     0.9741     0.0132
A_3     C     0.8032     0.3603     0.0919
A_2     C     0.2329     0.8664     0.0625
A_2     C     0.6194     0.0099     0.1875
A_1     C     0.5538     0.3399     0.6368
A_2     C     0.9652     0.7667     0.2525
A_2     C     0.5482     0.9449     0.6691
A_2     C     0.4817     0.4583     0.8178
A_1     C     0.4364     0.3335     0.097
A_3     C     0.2714     0.1136     0.5095
A_0     C     0.2622     0.9119     0.2207
A_0     C     0.8804     0.1668     0.4762
A_0     C     0.9793     0.8008     0.3202
A_2     C     0.0963     0.4652     0.6927
A_3     C     0.0013     0.4735     0.7699
A_1     C     0.169     0.546     0.4823
A_0     C     0.4377     0.9559     0.3443
A_3     C     0.0208     0.1361     0.4657
A_1     C     0.0664     0.103     0.7743
A_1     C     0.4089     0.3165     0.9701
A_1     C     0.8716     0.8728     0.2424
A_0     C     0.1508     0.9727     0.7004
A_3     C     0.0604     0.2873     0.9152
A_0     C     0.7435     0.4358     0.2143
A_3     C     0.3663     0.3018     0.5918
A_1     C     0.2455     0.9118     0.1769
A_1     C     0.0835     0.7492     0.6445
A_3     C     0.5004     0.5471     0.0857
A_2     C     0.9534     0.2768     0.8118
A_0     C     0.2144     0.8039     0.6505
A_1     C     0.0027     0.1551     0.8098
A_1     C     0.8263     0.5088     0.7848
A_0     C     0.7678     0.7003     0.0122
A_3     C     0.7297     0.3719     0.4245
A_1     C     0.2672     0.4024     0.2055
A_2     C     0.5497     0.2905     0.333
A_1     C     0.1295     0.9465     0.8488
A_1     C     0.3127     0.6916     0.5443
A_1     C     0.0388     0.3278     0.6749
A_2     C     0.1139     0.8949     0.8471
A_0     C     0.4015     0.4376     0.3372
A_2     C     0.6146     0.6715     0.2391
A_2     C     0.6133     0.9673     0.577
A_3     C     0.1757     0.2528     0.6009
A_0     C     0.3536     0.6924     0.7668
A_3     C     0.9787     0.2465     0.7904
A_0     C     0.0411     0.3318     0.557
A_2     C     0.1563     0.1234     0.5939
A_2     C     0.2481     0.8042     0.3286
A_3     C     0.3836     0.5642     0.4034
A_1     C     0.8608     0.6846     0.797
A_0     C     0.0877     0.4542     0.9324
A_1     C     0.7321     0.3306     0.2285
A_1     C     0.7935     0.0035     0.3412
A_0     C     0.2107     0.4353     0.7112
A_3     C     0.8464     0.4902     0.5122
A_1     C     0.4511     0.1932     0.5003
A_0     C     0.2065     0.8625     0.1711
A_3     C     0.7565     0.1647     0.0329
A_0     C     0.6974     0.7093     0.9652
A_0     C     0.9176     0.2347     0.0237
A_1     C     0.8724     0.4905     0.9014
A_1     C     0.7485     0.5151     0.8828
A_2     C     0.485     0.5781     0.9673
A_1     C     0.362     0.4934     0.585
A_2     C     0.7133     0.7799     0.7841
A_3     C     0.7137     0.8343     0.6829
A_3     C     0.3219     0.815     0.8392
A_2     C     0.4178     0.5695     0.9399
A_1     C     0.7235     0.9339     0.7019
A_1     C     0.3668     0.4189     0.682
A_0     C     0.5356     0.7534     0.7504
A_0     C     0.8549     0.3424     0.1122
A_0     C     0.7044     0.0875     0.1319
A_0     C     0.1321     0.2466     0.053
A_2     C     0.4234     0.174     0.9369
A_0     C     0.8749     0.9278     0.3314
A_1     C     0.4109     0.6761     0.1403
A_1     C     0.2954     0.1593     0.8454
A_2     C     0.1344     0.5542     0.6912
A_3     C     0.7684     0.4136     0.0382
A_0     C     0.6556     0.9666     0.3443
A_0     C     0.2226     0.4698     0.7413
A_0     C     0.6522     0.655     0.0059
A_0     C     0.7477     0.6929     0.7682
A_0     C     0.1444     0.316     0.2492
A_3     C     0.9503     0.2843     0.8574
A_2     C     0.8465     0.7505     0.889
A_2     C     0.0776     0.8397     0.6444
A_0     C     0.0675     0.7479     0.1469
A_1     C     0.2135     0.0398     0.018
A_0     C     0.0476     0.997     0.9725
A_0     C     0.1278     0.0829     0.3452
A_2     C     0.3363     0.7637     0.6649
A_3     C     0.2811     0.9465     0.6925
A_1     C     0.1789     0.297     0.2821
A_3     C     0.8329     0.8384     0.6907
A_2     C     0.0308     0.7324     0.6937
A_1     C     0.6993     0.0139     0.6239
A_0     C     0.484     0.9401     0.8628
A_1     C     0.8111     0.6591     0.1895
A_1     C     0.5442     0.6013     0.9805
A_2     C     0.607     0.2221     0.4158
A_0     C     0.7145     0.0829     0.5058
A_0     C     0.5613     0.7026     0.4363
A_3     C     0.8804     0.1928     0.3241
A_2     C     0.8037     0.1761     0.0318
A_1     C     0.1606     0.8866     0.1916
A_2     C     0.109     0.591     0.1529
A_0     C     0.6526     0.9489     0.5301
A_2     C     0.198     0.9671     0.8991
A_3     C     0.4632     0.4321     0.1623
A_3     C     0.862     0.0968     0.0056
A_3     C     0.0287     0.8521     0.6249
A_2     C     0.8967     0.7689     0.5809
A_3     C     0.9799     0.3755     0.6819
A_0     C     0.6278     0.6337     0.8357
A_1     C     0.9242     0.1806     0.6474
A_3     C     0.0535     0.2582     0.6064
A_0     C     0.8308     0.8019     0.6857
A_1     C     0.1449     0.3683     0.2569
A_3     C     0.7252     0.4476     0.0879
A_2     C     0.8916     0.7953     0.8132
A_2     C     0.9022     0.1114     0.3328
A_0     C     0.1867     0.6483     0.3376
A_3     C     0.5242     0.3101     0.0187
A_1     C     0.7401     0.7674     0.5257
A_1     C     0.6928     0.2854     0.1489
A_0     C     0.8064     0.8383     0.2181
A_2     C     0.4956     0.2218     0.3938
A_2     C     0.69     0.5098     0.6598
A_1     C     0.9946     0.1373     0.5392
A_1     C     0.5318     0.4936     0.981
A_0     C     0.2015     0.6806     0.514
A_3     C     0.6724     0.0297     0.2332
A_1     C     0.8311     0.0114     0.6305
A_2     C     0.7057     0.8411     0.2719
A_2     C     0.952     0.7465     0.0206
A_2     C     0.0462     0.873     0.7835
A_0     C     0.6642     0.6191     0.2399
A_3     C     0.4266     0.5278     0.7242
A_2     C     0.517     0.0101     0.2786
A_2     C     0.7944     0.2507     0.5615
A_2     C     0.9168     0.6124     0.3955
A_0     C     0.9861     0.5092     0.3448
A_2     C     0.3345     0.8175     0.0998
A_3     C     0.4376     0.9922     0.5833
A_3     C     0.0669     0.5896     0.3875
A_3     C     0.477     0.497     0.2062
A_1     C     0.1146     0.0044     0.3539
A_1     C     0.0876     0.4891     0.802
A_1     C     0.6034     0.1097     0.5197
A_3     C     0.642     0.3743     0.3277
A_3     C     0.3151     0.11     0.0941
A_2     C     0.7543     0.3262     0.0519
A_0     C     0.145     0.2758     0.7633
A_0     C     0.7577     0.1865     0.7533
A_3     C     0.2957     0.7032     0.805
A_3     C     0.8615     0.0642     0.0981
A_2     C     0.7696     0.6672     0.4118
A_1     C     0.8683     0.0753     0.2067
A_3     C     0.8289     0.6404     0.1305
A_2     C     0.5359     0.1055     0.7414
A_3     C     0.9706     0.4674     0.2974
A_3     C     0.724     0.2731     0.4319
A_0     C     0.696     0.3693     0.8314
A_2     C     0.3193     0.8637     0.4567
A_3     C     0.7625     0.9422     0.1
A_0     C     0.7032     0.0519     0.6767
A_0     C     0.8917     0.4526     0.3568
A_3     C     0.2037     0.4341     0.1625
A_3     C     0.8871     0.4731     0.2953
A_3     C     0.9945     0.9441     0.3095
A_2     C     0.8688     0.8034     0.2804
A_0     C     0.0738     0.2153     0.4571
A_2     C     0.6181     0.5751     0.8348
A_1     C     0.3891     0.0928     0.5356
A_2     C     0.819     0.5419     0.2741
A_3     C     0.425     0.7761     0.3922
A_1     C     0.8382     0.9969     0.4014
A_1     C     0.1033     0.9139     0.853
A_0     C     0.7611     0.4469     0.3161
A_0     C     0.2913     0.2767     0.9845
A_3     C     0.439     0.4798     0.722
A_3     C     0.8284     0.5353     0.7669
A_3     C     0.9278     0.8216     0.7617
A_0     C     0.1671     0.7022     0.7074
A_1     C     0.6661     0.5176     0.0802
A_0     C     0.7043     0.421     0.4741
A_2     C     0.1944     0.0044     0.9582
A_0     C     0.7279     0.4927     0.2055
A_2     C     0.7371     0.5423     0.0479
A_3     C     0.7366     0.5129     0.4265
A_2     C     0.6292     0.4856     0.3286
A_0     C     0.8827     0.5128     0.6268
A_0     C     0.0274     0.2919     0.8402
A_1     C     0.8683     0.9384     0.2427
A_0     C     0.1624     0.4167     0.7229
A_0     C     0.2953     0.1943     0.17
A_0     C     0.7504     0.203     0.4499
A_1     C     0.1711     0.8524     0.0727
A_1     C     0.4898     0.4895     0.146
A_2     C     0.8342     0.5745     0.1075
A_0     C     0.0905     0.4247     0.1563
A_2     C     0.8643     0.6214     0.0517
A_0     C     0.8007     0.1814     0.0353
A_0     C     0.5965     0.3685     0.3347
A_1     C     0.0079     0.3686     0.6536
A_1     C     0.8605     0.0779     0.6196
A_1     C     0.6606     0.3265     0.6974
A_0     C     0.4013     0.8834     0.24
A_3     C     0.1043     0.6304     0.4707
A_1     C     0.3639     0.2455     0.6462
A_1     C     0.5689     0.6689     0.0295
A_2     C     0.8536     0.5227     0.3573
A_0     C     0.1903     0.2108     0.8556
A_1     C     0.9018     0.9068     0.4805
A_2     C     0.45     0.1793     0.4199
A_0     C     0.1489     0.7833     0.8683
A_2     C     0.971     0.8841     0.5599
A_3     C     0.8019     0.3953     0.5609
A_3     C     0.3497     0.5506     0.1761
A_2     C     0.3039     0.4452     0.3924
A_0     C     0.2482     0.3208     0.2088
A_0     C     0.6893     0.6185     0.7196
A_3     C     0.8356     0.6637     0.7874
A_3     C     0.3838     0.6212     0.8149
A_2     C     0.869     0.1542     0.0649
A_2     C     0.6034     0.1365     0.3581
A_0     C     0.2144     0.2659     0.9026
A_2     C     0.5181     0.1785     0.4829
A_1     C     0.7661     0.764     0.9549
A_1     C     0.1733     0.6758     0.3802
A_1     C     0.9055     0.9248     0.2808
A_2     C     0.4399     0.2588     0.8834
A_3     C     0.485     0.8807     0.5793
A_0     C     0.351     0.5109     0.2432
A_3     C     0.3918     0.2492     0.2648
A_3     C     0.6446     0.7133     0.845
A_2     C     0.2507     0.4282     0.6072
A_0     C     0.9166     0.7306     0.5907
A_0     C     0.9056     0.0669     0.8301
A_3     C     0.8377     0.1352     0.8561
A_3     C     0.3561     0.394     0.0146
A_2     C     0.1316     0.1225     0.9271
A_2     C     0.1524     0.6412     0.2614
A_3     C     0.7931     0.2158     0.0286
A_3     C     0.2128     0.8268     0.3406
A_0     C     0.1611     0.808     0.6827
A_0     C     0.9425     0.0403     0.4867
A_1     C     0.4374     0.338     0.919
A_1     C     0.1627     0.3754     0.4269
A_1     C     0.1682     0.4377     0.2893
A_3     C     0.5745     0.9213     0.8368
A_0     C     0.0385     0.2786     0.4096
A_2     C     0.3195     0.7649     0.5088
A_2     C     0.3539     0.8229     0.6257
A_3     C     0.457     0.4246     0.9912
A_2     C     0.0369     0.8483     0.1658
A_2     C     0.6274     0.1832     0.522
A_3     C     0.4136     0.4922     0.5278
A_1     C     0.3226     0.9443     0.4905
A_0     C     0.5178     0.8379     0.7209
A_1     C     0.9031     0.0059     0.3599
A_3     C     0.5962     0.4956     0.1182
A_1     C     0.1497     0.9831     0.7656
A_0     C     0.7774     0.3933     0.3688
A_1     C     0.2537     0.4261     0.2626
A_2     C     0.2917     0.3127     0.1173
A_1     C     0.4308     0.7579     0.571
A_2     C     0.7145     0.8161     0.9908
A_2     C     0.9024     0.8883     0.0973
A_2     C     0.0894     0.6094     0.6033
A_3     C     0.4143     0.3299     0.1987
A_0     C     0.5847     0.477     0.3851
A_3     C     0.6115     0.5308     0.655
A_3     C     0.064     0.445     0.5772
A_2     C     0.0629     0.7259     0.0804
A_0     C     0.403     0.4464     0.967
A_1     C     0.9946     0.4458     0.8683
A_2     C     0.7879     0.7706     0.4084
A_0     C     0.7212     0.6737     0.4162
A_3     C     0.5568     0.3859     0.0849
A_2     C     0.196     0.1238     0.0967
A_0     C     0.5177     0.4388     0.0146
A_0     C     0.944     0.081     0.3703
A_2     C     0.2792     0.5259     0.2133
A_0     C     0.8522     0.1711     0.9854
A_2     C     0.6706     0.7337     0.7907
A_3     C     0.5997     0.5326     0.1595
A_0     C     0.4095     0.6013     0.3771
A_1     C     0.5905     0.6889     0.194
A_2     C     0.2588     0.951     0.1925
A_0     C     0.2127     0.5702     0.2066
A_0     C     0.4535     0.1277     0.0965
A_3     C     0.979     0.1908     0.5629
A_2     C     0.0794     0.643     0.7576
A_3     C     0.1279     0.9342     0.2333
A_2     C     0.3004     0.9175     0.5771
A_1     C     0.1537     0.9984     0.3282
A_2     C     0.123     0.6592     0.1747
A_3     C     0.7862     0.701     0.3523
A_0     C     0.4169     0.479     0.6842
A_0     C     0.4153     0.2611     0.1684
A_1     C     0.2064     0.51     0.7087
A_3     C     0.4905     0.6777     0.5553
A_3     C     0.2885     0.8007     0.7078
A_1     C     0.5245     0.6843     0.6345
A_1     C     0.407     0.5133     0.2645
A_2     C     0.8227     0.5946     0.0882
A_0     C     0.0561     0.2758     0.1795
A_1     C     0.4831     0.3869     0.7604
A_1     C     0.5858     0.0633     0.3477
A_0     C     0.8781     0.9659     0.0162
A_1     C     0.6354     0.8194     0.7813
A_1     C     0.8419     0.2635     0.1967
A_2     C     0.2828     0.4822     0.3946
A_1     C     0.7542     0.1237     0.4149
A_0     C     0.3208     0.5684     0.1955
A_2     C     0.4273     0.1171     0.7239
A_1     C     0.5113     0.7667     0.5946
A_1     C     0.4724     0.38     0.9749
A_1     C     0.7189     0.0223     0.5371
A_3     C     0.392     0.4035     0.0415
A_1     C     0.576     0.9988     0.9545
A_1     C     0.8466     0.0893     0.0752
A_3     C     0.0767     0.708     0.2291
A_0     C     0.144     0.9493     0.1203
A_2     C     0.5734     0.5581     0.3501
A_2     C     0.9158     0.4753     0.3211
A_2     C     0.4015     0.8254     0.5688
A_2     C     0.316     0.2833     0.9259
A_0     C     0.4038     0.6039     0.399
A_2     C     0.3267     0.7195     0.6012
A_2     C     0.6337     0.6378     0.7919
A_3     C     0.0799     0.3226     0.2744
A_2     C     0.2755     0.5793     0.0113
A_0     C     0.6501     0.5612     0.9683
A_2     C     0.8336     0.3882     0.9354
A_3     C     0.4942     0.0648     0.7909
A_3     C     0.9077     0.0177     0.47
A_0     C     0.1295     0.5675     0.8931
A_3     C     0.3585     0.8917     0.4127
A_1     C     0.657     0.9906     0.0289
A_2     C     0.9072     0.919     0.9697
A_0     C     0.1749     0.4911     0.7619
A_0     C     0.8366     0.5499     0.5151
A_3     C     0.9543     0.8007     0.2423
A_1     C     0.6372     0.4416     0.4342
A_3     C     0.2864     0.8732     0.0351
A_0     C     0.2938     0.8552     0.6506
A_2     C     0.7146     0.0156     0.4466
A_2     C     0.399     0.9591     0.4041
A_2     C     0.8055     0.1922     0.4069
A_1     C     0.4951     0.2387     0.3445
A_3     C     0.6066     0.9905     0.9608
A_1     C     0.2142     0.9213     0.0705
A_3     C     0.884     0.9181     0.9299
A_1     C     0.6594     0.9033     0.2429
A_3     C     0.9234     0.6909     0.6527
A_1     C     0.5301     0.6414     0.6987
A_1     C     0.8077     0.3242     0.8378
A_2     C     0.9969     0.1913     0.9346
A_3     C     0.2513     0.7355     0.2248
A_0     C     0.3421     0.9719     0.4244
A_1     C     0.6978     0.3743     0.7624
A_1     C     0.1711     0.0315     0.842
A_2     C     0.9994     0.9185     0.3859
A_0     C     0.2051     0.6212     0.4973
A_3     C     0.6974     0.3309     0.7482
A_0     C     0.1095     0.4637     0.917
A_0     C     0.1378     0.7744     0.7841
A_2     C     0.6469     0.7066     0.3331
A_3     C     0.0057     0.9411     0.4792
A_1     C     0.718     0.8966     0.1802
A_0     C     0.9087     0.9561     0.5441
A_2     C     0.284     0.5662     0.9785
A_3     C     0.2682     0.1708     0.8275
A_3     C     0.4766     0.7957     0.587
A_0     C     0.3016     0.6285     0.7184
A_3     C     0.1628     0.4111     0.5149
A_1     C     0.6018     0.8217     0.4509
A_2     C     0.1768     0.4281     0.4222
A_2     C     0.6193     0.0308     0.6306
A_1     C     0.6572     0.4409     0.4812
A_3     C     0.2332     0.0008     0.2438
A_2     C     0.2674     0.9192     0.5252
A_2     C     0.0534     0.0937     0.7524
A_2     C     0.3679     0.1243     0.0182
A_1     C     0.9869     0.1199     0.372
A_0     C     0.3361     0.0118     0.4361
A_2     C     0.9841     0.7525     0.7558
A_0     C     0.3849     0.8514     0.8756
A_1     C     0.0643     0.2953     0.89
A_2     C     0.6797     0.0067     0.2808
A_3     C     0.5056     0.471     0.1433
A_2     C     0.2862     0.2812     0.4442
A_2     C     0.6418     0.1902     0.1427
A_1     C     0.4645     0.9806     0.6121
A_0     C     0.6156     0.9012     0.4228
A_1     C     0.2637     0.3592     0.3736
A_0     C     0.714     0.0177     0.7276
A_1     C     0.795     0.4809     0.7282
A_3     C     0.4348     0.0745     0.2175
A_2     C     0.4572     0.5406     0.2135
A_2     C     0.3466     0.8243     0.119
A_2     C     0.2906     0.1795     0.1151
A_0     C     0.8975     0.2712     0.2856
A_3     C     0.2061     0.7816     0.3761
A_1     C     0.5131     0.9502     0.3401
A_3     C     0.1501     0.4414     0.7582
A_0     C     0.259     0.7822     0.8435
A_0     C     0.4144     0.229     0.8239
A_3     C     0.1249     0.8723     0.2289
A_0     C     0.9602     0.9843     0.4132
A_2     C     0.2801     0.4536     0.7948
A_0     C     0.0303     0.6295     0.9332
A_3     C     0.411     0.5031     0.0831
A_2     C     0.2916     0.8243     0.6639
A_1     C     0.3111     0.4525     0.8286
A_3     C     0.524     0.6807     0.9013
A_0     C     0.5558     0.7899     0.7215
A_2     C     0.5937     0.6692     0.1475
A_2     C     0.4265     0.1966     0.3341
A_3     C     0.5771     0.8166     0.3725
A_2     C     0.5064     0.1352     0.1692
A_3     C     0.2951     0.555     0.7398
A_1     C     0.8718     0.9347     0.6116
A_2     C     0.1857     0.2113     0.0216
A_2     C     0.7621     0.1684     0.5185
A_0     C     0.3483     0.3797     0.9635
A_2     C     0.165     0.2087     0.9444
A_2     C     0.843     0.202     0.161
A_1     C     0.8971     0.0096     0.4397
A_1     C     0.7427     0.016     0.3412
A_1     C     0.6535     0.4297     0.6651
A_1     C     0.474     0.457     0.3637
A_2     C     0.9914     0.62     0.6098
A_1     C     0.7323     0.9997     0.2912
A_0     C     0.4046     0.5532     0.8267
A_1     C     0.901     0.0847     0.5099
A_1     C     0.9708     0.4154     0.8075
A_1     C     0.6195     0.3783     0.1856
A_1     C     0.9445     0.3474     0.865
A_2     C     0.1884     0.3175     0.4348
A_1     C     0.6452     0.4727     0.0975
A_1     C     0.3169     0.9484     0.6969
A_0     C     0.8961     0.6919     0.3951
A_2     C     0.7439     0.5797     0.0635
A_1     C     0.4542     0.2049     0.8037
A_0     C     0.969     0.1065     0.4317
A_2     C     0.294     0.3261     0.4283
A_2     C     0.1062     0.2095     0.3877
A_1     C     0.3072     0.2423     0.1258
A_2     C     0.3753     0.0618     0.4332
A_0     C     0.8937     0.8578     0.5167
A_3     C     0.442     0.7335     0.3591
A_2     C     0.9201     0.5577     0.7126
A_3     C     0.0646     0.6003     0.0837
A_2     C     0.7772     0.5002     0.1448
A_1     C     0.4639     0.5872     0.8346
A_3     C     0.8374     0.9687     0.3207
A_3     C     0.1773     0.2502     0.4511
A_3     C     0.3392     0.9051     0.8132
A_3     C     0.2685     0.8993     0.1896
A_2     C     0.5504     0.5237     0.7429
A_2     C     0.309     0.2475     0.9514
A_2     C     0.1302     0.9143     0.9981
A_3     C     0.5218     0.8942     0.2158
A_1     C     0.3723     0.4586     0.0283
A_0     C     0.1099     0.2543     0.0793
A_0     C     0.4984     0.8807     0.3286
A_3     C     0.09     0.3276     0.4752
A_2     C     0.2662     0.2846     0.0254
A_3     C     0.6174     0.4768     0.3259
A_0     C     0.7161     0.6555     0.7186
A_3     C     0.4124     0.8954     0.4709
A_2     C     0.8573     0.0092     0.1452
A_1     C     0.4435     0.6939     0.6536
A_3     C     0.6123     0.3466     0.971
A_0     C     0.9002     0.7939     0.6326
A_3     C     0.429     0.7107     0.5611
A_3     C     0.4196     0.0571     0.2589
A_0     C     0.6379     0.3697     0.9202
A_2     C     0.6952     0.7343     0.4292
A_3     C     0.297     0.781     0.6109
A_0     C     0.1086     0.2825     0.3692
A_2     C     0.3483     0.5457     0.3874
A_1     C     0.9082     0.6332     0.39
A_3     C     0.1638     0.8551     0.2371
A_0     C     0.8177     0.8359     0.6615
A_0     C     0.6527     0.3863     0.8928
A_3     C     0.9118     0.0505     0.4477
A_0     C     0.4645     0.3054     0.0401
A_2     C     0.0655     0.0489     0.1497
A_2     C     0.7559     0.5731     0.2557
A_0     C     0.415     0.484     0.5268
A_0     C     0.8365     0.5034     0.8035
A_3     C     0.2364     0.9197     0.487
A_0     C     0.3022     0.4752     0.7331
A_1     C     0.4929     0.3477     0.954
A_2     C     0.959     0.1704     0.5428
A_0     C     0.3236     0.0687     0.9978
A_0     C     0.3545     0.6548     0.7698
A_3     C     0.3301     0.7866     0.0133
A_2     C     0.6101     0.2168     0.2537
A_1     C     0.5251     0.4697     0.0421
A_0     C     0.708     0.4585     0.7978
A_1     C     0.9537     0.894     0.333
A_3     C     0.4823     0.8762     0.774
A_2     C     0.0817     0.1087     0.6056
A_3     C     0.4982     0.5171     0.6657
A_0     C     0.0453     0.0475     0.9335
A_2     C     0.4595     0.7687     0.948
A_2     C     0.4433     0.0551     0.0982
A_2     C     0.5735     0.9428     0.736
A_3     C     0.9817     0.7934     0.3699
A_3     C     0.2856     0.4837     0.2746
A_1     C     0.6912     0.8103     0.7616
A_3     C     0.1632     0.9978     0.9317
A_0     C     0.7211     0.8334     0.8737
A_0     C     0.9005     0.493     0.9579
A_0     C     0.8598     0.5366     0.8225
A_3     C     0.4863     0.2177     0.2485
A_3     C     0.2596     0.9879     0.2924
A_3     C     0.8291     0.0453     0.0455
A_0     C     0.9699     0.6712     0.1209
A_3     C     0.2699     0.1891     0.2986
A_3     C     0.4751     0.989     0.5674
A_2     C     0.8186     0.1615     0.5173
A_1     C     0.442     0.7222     0.1357
A_0     C     0.312     0.0574     0.6654
A_2     C     0.6408     0.497     0.6587
A_0     C     0.2049     0.279     0.71
A_1     C     0.1215     0.9757     0.1792
A_3     C     0.6183     0.4768     0.4034
A_1     C     0.4689     0.8036     0.1021
A_1     C     0.1766     0.6197     0.5693
A_0     C     0.2859     0.58     0.5402
A_0     C     0.5882     0.4894     0.0535
A_1     C     0.3359     0.5219     0.8388
A_3     C     0.3631     0.8967     0.7481
A_3     C     0.7738     0.4175     0.828
A_0     C     0.1404     0.6464     0.4873
A_3     C     0.7464     0.8315     0.0513
A_2     C     0.1713     0.7686     0.7199
A_3     C     0.2637     0.8613     0.0901
A_0     C     0.4944     0.6822     0.4756
A_2     C     0.0983     0.4463     0.3721
A_0     C     0.9044     0.0247     0.6816
A_1     C     0.3571     0.0238     0.6996
A_2     C     0.6372     0.3629     0.5587
A_1     C     0.728     0.745     0.1517
A_2     C     0.9985     0.9597     0.529
A_0     C     0.6606     0.0843     0.616
A_3     C     0.6057     0.9128     0.9197
A_1     C     0.7383     0.7328     0.9169
A_1     C     0.7844     0.5588     0.4389
A_0     C     0.6947     0.6749     0.1459
A_1     C     0.355     0.2917     0.3494
A_1     C     0.0922     0.787     0.8965
A_3     C     0.7957     0.1368     0.493
A_3     C     0.9156     0.9578     0.9343
A_2     C     0.3847     0.8378     0.0834
A_2     C     0.3623     0.4235     0.1374
A_2     C     0.3399     0.1188     0.8491
A_1     C     0.5661     0.2122     0.4701
A_0     C     0.1323     0.329     0.5892
A_3     C     0.2328     0.6869     0.8484
A_3     C     0.3745     0.2334     0.0878
A_2     C     0.7163     0.2686     0.0837
A_1     C     0.8544     0.3694     0.3573
A_0     C     0.061     0.8425     0.1144
A_2     C     0.7203     0.926     0.3936
A_1     C     0.6897     0.2621     0.3901
A_3     C     0.6088     0.1742     0.7982
A_2     C     0.3255     0.0088     0.3553
A_0     C     0.8995     0.4757     0.2252
A_0     C     0.1491     0.1379     0.1513
A_2     C     0.3709     0.9737     0.6298
A_0     C     0.9221     0.6166     0.6763
A_2     C     0.9992     0.053     0.9323
A_1     C     0.4255     0.7899     0.3544
A_3     C     0.9698     0.9134     0.2013
A_1     C     0.6011     0.5032     0.5631
A_3     C     0.5024     0.5584     0.1283
A_1     C     0.4448     0.0388     0.3493
A_1     C     0.2223     0.7899     0.9651
A_0     C     0.568     0.2855     0.0568
A_0     C     0.3834     0.3343     0.185
A_0     C     0.6128     0.9547     0.1075
A_2     C     0.3082     0.2304     0.9544
A_1     C     0.3196     0.0556     0.6245
A_0     C     0.1069     0.2172     0.2824
A_3     C     0.0692     0.8688     0.9317
A_0     C     0.3828     0.6608     0.7323
A_0     C     0.2872     0.0317     0.7247
A_1     C     0.4674     0.8168     0.0684
A_3     C     0.0463     0.7631     0.4996
A_1     C     0.9903     0.5023     0.6165
A_2     C     0.1031     0.6879     0.2995
A_2     C     0.1887     0.9679     0.4566
A_0     C     0.9058     0.281     0.2161
A_0     C     0.1561     0.9109     0.6677
A_3     C     0.3674     0.7482     0.373
A_3     C     0.3876     0.2955     0.9723
A_3     C     0.4204     0.7214     0.6903
A_1     C     0.7945     0.5612     0.6412
A_3     C     0.8743     0.5224     0.0404
A_2     C     0.402     0.5612     0.0025
A_3     C     0.9596     0.3281     0.5693
A_3     C     0.2486     0.6779     0.4745
A_1     C     0.0491     0.7249     0.0825
A_2     C     0.3783     0.528     0.4272
A_1     C     0.6511     0.9236     0.8399
A_0     C     0.1838     0.1206     0.6743
A_0     C     0.1262     0.4954     0.1669
A_2     C     0.2112     0.8178     0.1354
A_0     C     0.1239     0.1555     0.521
A_0     C     0.8773     0.8318     0.7492
A_0     C     0.874     0.3435     0.6619
A_0     C     0.4309     0.5303     0.0301
A_3     C     0.1355     0.6915     0.7207
A_0     C     0.8859     0.6838     0.8619
A_0     C     0.1551     0.5981     0.8337
A_1     C     0.2586     0.4925     0.8931
A_2     C     0.5364     0.4256     0.9346
A_2     C     0.4597     0.5342     0.7546
A_0     C     0.0234     0.8819     0.3021
A_1     C     0.4746     0.3601     0.3739
A_1     C     0.5132     0.3549     0.4923
A_3     C     0.8572     0.7067     0.7035
A_0     C     0.285     0.6762     0.6661
A_2     C     0.8035     0.4411     0.1589
A_0     C     0.6899     0.5393     0.9712
A_3     C     0.3145     0.9629     0.2535
A_0     C     0.2776     0.5199     0.559
A_2     C     0.981     0.386     0.481
A_1     C     0.7317     0.5497     0.6781
A_3     C     0.4262     0.9488     0.1854
A_1     C     0.0636     0.1758     0.2509
A_1     C     0.4442     0.1366     0.7311
A_3     C     0.982     0.6571     0.1261
A_3     C     0.5443     0.9985     0.6455
A_2     C     0.9524     0.5541     0.9893
A_2     C     0.0611     0.5893     0.2172
A_1     C     0.5224     0.3608     0.0323
A_1     C     0.555     0.4519     0.6347
A_2     C     0.2962     0.4231     0.6339
A_1     C     0.8256     0.9745     0.7061
A_0     C     0.3725     0.9517     0.6419
A_0     C     0.745     0.8554     0.784
A_3     C     0.7895     0.1972     0.0401
A_2     C     0.6669     0.5741     0.7474
A_3     C     0.0638     0.1839     0.9672
A_1     C     0.0614     0.5049     0.5039
A_0     C     0.3883     0.0957     0.0914
A_3     C     0.0917     0.8891     0.6704
A_0     C     0.7642     0.3855     0.7896
A_2     C     0.3795     0.2045     0.5436
A_2     C     0.2368     0.8633     0.7099
A_3     C     0.3246     0.1975     0.6951
A_0     C     0.1512     0.681     0.2526
A_1     C     0.9832     0.7651     0.5008
A_1     C     0.982     0.5339     0.8357
A_3     C     0.6575     0.416     0.8654
A_0     C     0.8071     0.5426     0.8576
A_1     C     0.9726     0.9148     0.7269
A_0     C     0.5172     0.5382     0.2683
A_1     C     0.3858     0.9196     0.2071
A_1     C     0.5708     0.3835     0.8256
A_1     C     0.1167     0.1644     0.0702
A_1     C     0.0604     0.4049     0.4607
A_3     C     0.7157     0.6343     0.8505
A_3     C     0.7017     0.4329     0.0027
A_2     C     0.8893     0.0166     0.669
A_1     C     0.7668     0.4238     0.4804
A_2     C     0.2626     0.4532     0.0885
A_1     C     0.3995     0.5844     0.2387
A_0     C     0.8256     0.7291     0.1222
A_1     C     0.3398     0.2436     0.3087
A_1     C     0.7995     0.1739     0.2676
A_3     C     0.4926     0.7181     0.4391
A_0     C     0.3907     0.4389     0.5712
A_0     C     0.1757     0.2999     0.87
A_0     C     0.6061     0.6222     0.1714
A_0     C     0.7071     0.5503     0.6769
A_0     C     0.8754     0.5415     0.8188
A_3     C     0.2207     0.2752     0.6093
A_2     C     0.9908     0.2686     0.3803
A_0     C     0.8542     0.5576     0.2259
A_1     C     0.3715     0.2093     0.9187
A_2     C     0.1212     0.6351     0.0731
A_2     C     0.2598     0.2915     0.444
A_3     C     0.9918     0.812     0.8483
A_2     C     0.2423     0.9798     0.4958
A_0     C     0.8024     0.9895     0.2719
A_1     C     0.1029     0.6549     0.1444
A_1     C     0.5124     0.1291     0.6682
A_1     C     0.5847     0.6611     0.7347
A_0     C     0.1467     0.0625     0.7372
A_2     C     0.5468     0.8629     0.0659
A_3     C     0.4233     0.8898     0.1365
A_0     C     0.3784     0.4778     0.9726
A_0     C     0.5009     0.3794     0.9405
A_0     C     0.0105     0.3927     0.7811
A_1     C     0.515     0.2545     0.4149
A_0     C     0.2553     0.5812     0.7654
A_3     C     0.8962     0.9746     0.7524
A_2     C     0.0039     0.9051     0.0727
A_1     C     0.397     0.1733     0.2019
A_1     C     0.1739     0.7466     0.0115
A_0     C     0.8115     0.5798     0.9958
A_3     C     0.7083     0.7931     0.5142
A_1     C     0.0563     0.186     0.0635
A_3     C     0.5529     0.2604     0.3342
A_0     C     0.6586     0.2507     0.8597
A_1     C     0.687     0.3062     0.1838
A_2     C     0.5483     0.3405     0.639
A_3     C     0.2963     0.2086     0.7312
A_1     C     0.4286     0.6112     0.1257
A_1     C     0.5862     0.428     0.0889
A_3     C     0.9077     0.6396     0.7836
A_1     C     0.3271     0.8863     0.3521
A_1     C     0.0741     0.8714     0.7685
A_2     C     0.2312     0.3007     0.1304
A_0     C     0.7531     0.5262     0.7282
A_0     C     0.332     0.4424     0.6135
A_1     C     0.5367     0.3899     0.1898
A_3     C     0.1994     0.8152     0.6691
A_1     C     0.4421     0.5741     0.2176
A_2     C     0.0993     0.1943     0.1137
A_3     C     0.8404     0.4832     0.5785
A_0     C     0.7046     0.7761     0.7508
A_2     C     0.5778     0.2286     0.6324
A_0     C     0.9272     0.5313     0.0736
A_2     C     0.3311     0.2762     0.7807
A_2     C     0.676     0.6119     0.2593
A_3     C     0.0184     0.2828     0.5808
A_3     C     0.0756     0.7043     0.8071
A_2     C     0.897     0.9223     0.3626
A_1     C     0.299     0.6028     0.785
A_1     C     0.959     0.7918     0.3166
A_3     C     0.2887     0.0692     0.6903
A_1     C     0.395     0.6363     0.1647
A_3     C     0.1587     0.2332     0.8895
A_2     C     0.1896     0.7917     0.1256
A_3     C     0.2771     0.3188     0.1383
A_1     C     0.0261     0.3716     0.9104
A_3     C     0.8404     0.2395     0.0734
A_2     C     0.1143     0.4665     0.9918
A_1     C     0.6209     0.6969     0.7854
A_3     C     0.9023     0.3491     0.502
A_1     C     0.2489     0.3723     0.6904
A_3     C     0.1981     0.438     0.8716
A_1     C     0.7377     0.2755     0.8443
A_0     C     0.7509     0.3487     0.7731
A_2     C     0.0032     0.7737     0.4625
A_3     C     0.0537     0.0178     0.8458
A_2     C     0.7321     0.5286     0.6198
A_1     C     0.8529     0.7099     0.5124
A_3     C     0.181     0.7563     0.0253
A_0     C     0.8693     0.6406     0.8523
A_0     C     0.2972     0.034     0.7655
A_1     C     0.3208     0.8004     0.3256
A_0     C     0.3908     0.8936     0.3264
A_1     C     0.8489     0.2578     0.3103
A_1     C     0.1602     0.6624     0.7805
A_1     C     0.9048     0.7712     0.0839
A_2     C     0.6429     0.8422     0.995
A_1     C     0.6185     0.7668     0.037
A_3     C     0.254     0.8759     0.2915
A_1     C     0.9858     0.2634     0.8646
A_1     C     0.9635     0.0513     0.1353
A_1     C     0.3717     0.7279     0.0204
A_0     C     0.9045     0.2052     0.1183
A_0     C     0.5949     0.6944     0.5463
A_2     C     0.854     0.8943     0.2222
A_1     C     0.9429     0.3533     0.2814
A_0     C     0.3927     0.1074     0.4752
A_1     C     0.7343     0.6934     0.2914
A_0     C     0.2478     0.6859     0.413
A_2     C     0.807     0.1076     0.6838
A_1     C     0.7468     0.5213     0.5699
A_2     C     0.789     0.4614     0.0623
A_0     C     0.1738     0.2197     0.1656
A_3     C     0.0503     0.1758     0.1095
A_0     C     0.2005     0.2268     0.2241
A_1     C     0.1625     0.3729     0.5493
A_3     C     0.6631     0.5972     0.16
A_1     C     0.6762     0.0464     0.376
A_2     C     0.6223     0.8819     0.2498
A_1     C     0.9761     0.5645     0.3501
A_1     C     0.6042     0.6886     0.387
A_0     C     0.4218     0.6871     0.9737
A_2     C     0.6394     0.3706     0.8185
A_3     C     0.6514     0.1033     0.3404
A_0     C     0.4173     0.2156     0.2501
A_3     C     0.0137     0.4493     0.5174
A_3     C     0.3448     0.589     0.6656
A_2     C     0.6855     0.9827     0.7253
A_0     C     0.4477     0.5677     0.0787
A_0     C     0.2583     0.9242     0.5874
A_2     C     0.8666     0.3205     0.9318
A_3     C     0.7622     0.899     0.3188
A_3     C     0.3914     0.4199     0.4105
A_3     C     0.9614     0.9218     0.85
A_2     C     0.8072     0.651     0.7982
A_2     C     0.6899     0.6316     0.8568
A_1     C     0.3826     0.7179     0.7371
A_1     C     0.7567     0.0378     0.7476
A_3     C     0.8322     0.7861     0.5177
A_3     C     0.2725     0.2315     0.3341
A_2     C     0.5475     0.1677     0.7691
A_3     C     0.1519     0.3968     0.8831
A_2     C     0.8912     0.5988     0.164
A_1     C     0.0574     0.4654     0.1529
A_1     C     0.5671     0.0325     0.6293
A_0     C     0.8484     0.3607     0.755
A_1     C     0.463     0.1859     0.984
A_0     C     0.0262     0.8403     0.0154
A_1     C     0.3282     0.2179     0.1207
A_2     C     0.9368     0.7794     0.5796
A_2     C     0.7995     0.0867     0.4839
A_1     C     0.3737     0.3897     0.6853
A_1     C     0.7858     0.3682     0.3726
A_1     C     0.6866     0.6521     0.1154
A_3     C     0.2165     0.7021     0.7371
A_0     C     0.5694     0.7356     0.1381
A_3     C     0.7917     0.7993     0.6491
A_0     C     0.0121     0.6563     0.9475
A_2     C     0.9443     0.4219     0.4391
A_2     C     0.5597     0.6221     0.2026
A_3     C     0.8976     0.0668     0.4122
A_0     C     0.6018     0.0904     0.8456
A_2     C     0.2718     0.7199     0.6321
A_1     C     0.7969     0.848     0.5801
A_2     C     0.6448     0.7213     0.2248
A_2     C     0.9723     0.4597     0.0059
A_0     C     0.3435     0.3685     0.3145
A_2     C     0.3079     0.8056     0.5088
A_2     C     0.2684     0.2817     0.5861
A_3     C     0.9052     0.7389     0.7509
A_1     C     0.4427     0.4797     0.5998
A_3     C     0.5962     0.6012     0.1123
A_0     C     0.2382     0.7951     0.143
A_1     C     0.587     0.261     0.4186
A_3     C     0.0178     0.8899     0.5197
A_2     C     0.0008     0.5743     0.8773
A_3     C     0.7062     0.8915     0.8337
A_0     C     0.4063     0.0871     0.8194
A_3     C     0.2138     0.9135     0.8147
A_2     C     0.9736     0.3072     0.3215
A_3     C     0.0799     0.823     0.7741
A_3     C     0.2841     0.5844     0.5197
A_2     C     0.4365     0.5157     0.1039
A_1     C     0.5785     0.0314     0.5858
A_1     C     0.5288     0.8821     0.7886
A_3     C     0.3569     0.4329     0.2756
A_0     C     0.9399     0.3593     0.0624
A_2     C     0.8312     0.3457     0.8953
A_3     C     0.8385     0.1659     0.7838
A_3     C     0.1126     0.348     0.4123
A_1     C     0.2043     0.5083     0.547
A_0     C     0.0636     0.4096     0.5854
A_3     C     0.44     0.9496     0.319
A_3     C     0.0081     0.2275     0.3238
A_2     C     0.1754     0.0202     0.6771
A_2     C     0.5991     0.0602     0.5616
A_2     C     0.1836     0.1669     0.0698
A_1     C     0.4247     0.0572     0.3915
A_0     C     0.0737     0.145     0.3915
A_1     C     0.2889     0.6053     0.2326
A_0     C     0.1873     0.123     0.1969
A_3     C     0.5665     0.7446     0.4006
A_3     C     0.5796     0.2013     0.0288
A_2     C     0.4849     0.8536     0.6234
A_0     C     0.5749     0.9953     0.4771
A_3     C     0.6222     0.4444     0.0615
A_0     C     0.0186     0.8788     0.6661
A_3     C     0.5796     0.8179     0.7609
A_2     C     0.9735     0.536     0.557
A_3     C     0.1909     0.5255     0.1624
A_0     C     0.3984     0.2424     0.6351
A_2     C     0.8119     0.388     0.8342
A_1     C     0.701     0.6133     0.8257
A_3     C     0.3817     0.934     0.3903
A_1     C     0.2749     0.5671     0.6275
A_3     C     0.098     0.4377     0.9884
A_2     C     0.6184     0.3714     0.5286
A_0     C     0.9837     0.1161     0.7148
A_0     C     0.0694     0.447     0.5266
A_0     C     0.5831     0.9004     0.0642
A_2     C     0.0708     0.5     0.9865
A_1     C     0.2923     0.9771     0.1909
A_2     C     0.9405     0.7878     0.2485
A_3     C     0.2156     0.473     0.4753
A_1     C     0.6688     0.7929     0.6875
A_0     C     0.6467     0.1533     0.269
A_3     C     0.4096     0.2564     0.6558
A_2     C     0.6007     0.9982     0.0795
A_2     C     0.7664     0.6702     0.7755
A_3     C     0.9383     0.6587     0.5247
A_3     C     0.1695     0.1598     0.4789
A_0     C     0.1645     0.8914     0.7523
A_0     C     0.864     0.3261     0.0823
A_1     C     0.979     0.6577     0.0027
A_0     C     0.5049     0.6966     0.322
A_2     C     0.9359     0.2309     0.0861
A_1     C     0.425     0.4031     0.6836
A_1     C     0.8034     0.6056     0.1692
A_3     C     0.4868     0.231     0.8442
A_3     C     0.4318     0.3941     0.9805
A_1     C     0.1702     0.7153     0.9505
A_2     C     0.1604     0.5682     0.4422
A_2     C     0.852     0.7051     0.3392
A_0     C     0.3208     0.6103     0.3397
A_1     C     0.0206     0.9901     0.7017
A_2     C     0.1239     0.1152     0.0904
A_2     C     0.5022     0.4826     0.631
A_0     C     0.4404     0.6503     0.7413
A_0     C     0.4417     0.886     0.8766
A_1     C     0.4872     0.6918     0.4341
A_0     C     0.3987     0.8156     0.4853
A_2     C     0.4916     0.3508     0.6573
A_0     C     0.8134     0.9633     0.3431
A_3     C     0.9833     0.6174     0.5165
A_2     C     0.0776     0.4944     0.9728
A_1     C     0.3753     0.4209     0.862
A_2     C     0.0686     0.6978     0.0668
A_0     C     0.4478     0.9741     0.6556
A_1     C     0.3295     0.7314     0.2163
A_2     C     0.5146     0.5097     0.587
A_0     C     0.9263     0.3139     0.8966
A_2     C     0.6699     0.1913     0.9018
A_0     C     0.4482     0.1131     0.9001
A_1     C     0.7405     0.5825     0.3692
A_1     C     0.462     0.527     0.612
A_2     C     0.8859     0.083     0.2269
A_2     C     0.5122     0.8153     0.6926
A_0     C     0.7167     0.2912     0.8478
A_2     C     0.5097     0.8855     0.0215
A_2     C     0.8983     0.8427     0.116
A_0     C     0.958     0.6131     0.2825
A_0     C     0.2242     0.0872     0.8282
A_3     C     0.3597     0.5455     0.8971
A_3     C     0.9422     0.2527     0.0661
A_0     C     0.3958     0.735     0.1827
A_3     C     0.0382     0.1453     0.5178
A_0     C     0.3205     0.3711     0.9017
A_3     C     0.8276     0.7164     0.7428
A_3     C     0.6496     0.1372     0.3579
A_2     C     0.0217     0.4351     0.8436
A_0     C     0.0559     0.181     0.5202
A_1     C     0.6251     0.7508     0.6298
A_1     C     0.5234     0.0871     0.1162
A_3     C     0.2285     0.9797     0.6058
A_0     C     0.0169     0.6456     0.0383
A_3     C     0.3416     0.7214     0.91
A_0     C     0.3689     0.518     0.3871
A_3     C     0.232     0.1366     0.8569
A_1     C     0.1001     0.6821     0.8926
A_1     C     0.5835     0.25     0.3922
A_1     C     0.0788     0.5744     0.7106
A_0     C     0.1915     0.4056     0.1902
A_2     C     0.3253     0.346     0.6441
A_0     C     0.8124     0.2212     0.8601
A_2     C     0.6068     0.5053     0.9349
A_0     C     0.5005     0.4868     0.5378
A_2     C     0.5458     0.0716     0.3955
A_1     C     0.6372     0.0432     0.4504
A_2     C     0.3518     0.0046     0.2208
A_3     C     0.3381     0.8635     0.0798
A_1     C     0.707     0.4513     0.5046
A_2     C     0.488     0.4772     0.6331
A_2     C     0.7301     0.4738     0.4436
A_3     C     0.2956     0.0005     0.3752
A_1     C     0.4085     0.5184     0.4422
A_0     C     0.2232     0.3773     0.0987
A_3     C     0.46     0.3573     0.6007
A_2     C     0.9875     0.9456     0.3636
A_2     C     0.269     0.6901     0.408
A_3     C     0.8305     0.0849     0.707
A_1     C     0.3061     0.0438     0.4551
A_3     C     0.9604     0.6521     0.4849
A_0     C     0.4247     0.4153     0.3612
A_2     C     0.0629     0.9197     0.5779
A_2     C     0.7389     0.8335     0.3011
A_0     C     0.1458     0.3154     0.4893
A_2     C     0.8621     0.6384     0.6132
A_3     C     0.3606     0.6271     0.7231
A_0     C     0.7072     0.7187     0.2089
A_0     C     0.167     0.7049     0.9693
A_3     C     0.1952     0.484     0.4838
A_0     C     0.6478     0.2686     0.2417
A_1     C     0.1767     0.6094     0.3945
A_2     C     0.5898     0.1817     0.4916
A_0     C     0.5342     0.6746     0.0591
A_1     C     0.0945     0.8096     0.8923
A_1     C     0.6473     0.9942     0.7272
A_0     C     0.6942     0.2611     0.7689
A_2     C     0.4663     0.2657     0.8497
A_0     C     0.3137     0.2484     0.2038
A_2     C     0.1301     0.2782     0.4189
A_2     C     0.9962     0.5401     0.7163
A_1     C     0.6982     0.5013     0.0478
A_2     C     0.8439     0.2966     0.5465
A_1     C     0.4489     0.5966     0.9944
A_1     C     0.9636     0.0043     0.8771
A_3     C     0.7428     0.2224     0.8089
A_1     C     0.4749     0.6382     0.6164
A_3     C     0.4494     0.9303     0.8267
A_3     C     0.1411     0.8813     0.3279
A_0     C     0.7468     0.8089     0.3382
A_2     C     0.7664     0.0434     0.5387
A_1     C     0.2795     0.54     0.3824
A_3     C     0.192     0.7277     0.6876
A_2     C     0.9123     0.5716     0.73
A_1     C     0.6157     0.5362     0.9624
A_2     C     0.7475     0.008     0.8963
A_0     C     0.7578     0.6974     0.3563
A_1     C     0.0762     0.4212     0.3224
A_3     C     0.2539     0.9357     0.8843
A_0     C     0.8207     0.7455     0.8383
A_1     C     0.3898     0.267     0.5279
A_2     C     0.4547     0.9833     0.8083
A_0     C     0.4533     0.1444     0.7187
A_1     C     0.166     0.7355     0.8337
A_0     C     0.2602     0.1676     0.0294
A_1     C     0.9418     0.0699     0.1802
A_3     C     0.4147     0.9797     0.9418
A_3     C     0.1663     0.993     0.9625
A_3     C     0.2564     0.2873     0.9446
A_3     C     0.4819     0.5818     0.1142
A_3     C     0.6252     0.7943     0.4932
A_2     C     0.4194     0.9019     0.7213
A_3     C     0.1397     0.1158     0.0252
A_2     C     0.5737     0.3091     0.8601
A_3     C     0.2482     0.3852     0.916
A_1     C     0.6716     0.8721     0.0192
A_0     C     0.3076     0.0917     0.393
A_1     C     0.3544     0.453     0.712
A_0     C     0.0243     0.3133     0.0603
A_0     C     0.057     0.9786     0.1973
A_2     C     0.1043     0.8038     0.0425
A_1     C     0.8273     0.1755     0.9972
A_3     C     0.3461     0.588     0.7656
A_1     C     0.0486     0.2544     0.1043
A_2     C     0.668     0.0484     0.4288
A_1     C     0.4557     0.0197     0.9106
A_2     C     0.4421     0.5068     0.8922
A_1     C     0.4692     0.0976     0.2893
A_2     C     0.8575     0.0432     0.4873
A_1     C     0.6007     0.1402     0.3977
A_2     C     0.3427     0.9194     0.2658
A_3     C     0.6361     0.3712     0.6101
A_2     C     0.135     0.1316     0.027
A_1     C     0.4351     0.122     0.757
A_3     C     0.7655     0.5322     0.3596
A_3     C     0.6497     0.2041     0.3666
A_0     C     0.4044     0.2103     0.8752
A_0     C     0.6776     0.0226     0.4515
A_0     C     0.501     0.3315     0.2061
A_1     C     0.3044     0.9935     0.9997
A_1     C     0.2601     0.5037     0.8269
A_0     C     0.2533     0.4392     0.5369
A_0     C     0.7117     0.048     0.0708
A_0     C     0.0358     0.1729     0.7146
A_0     C     0.8556     0.2573     0.4436
A_0     C     0.5861     0.8704     0.6582
A_3     C     0.019     0.006     0.6711
A_2     C     0.0408     0.3823     0.5342
A_2     C     0.1413     0.1299     0.0895
A_2     C     0.785     0.2678     0.9477
A_2     C     0.0797     0.4861     0.3899
A_1     C     0.2295     0.6324     0.0766
A_1     C     0.2286     0.8294     0.5681
A_3     C     0.7349     0.6454     0.7374
A_3     C     0.4439     0.9772     0.236
A_1     C     0.3858     0.2876     0.0175
A_1     C     0.4378     0.7538     0.8002
A_2     C     0.9937     0.9917     0.7829
A_0     C     0.5395     0.7944     0.5394
A_0     C     0.1647     0.3734     0.1686
A_3     C     0.3609     0.9246     0.5254
A_3     C     0.4871     0.7651     0.8608
A_2     C     0.2968     0.4372     0.9852
A_0     C     0.6964     0.41     0.2915
A_2     C     0.3768     0.4417     0.1845
A_3     C     0.2686     0.3954     0.5546
A_0     C     0.698     0.2593     0.0761
A_1     C     0.4289     0.1967     0.5171
A_2     C     0.8011     0.4385     0.6393
A_2     C     0.6076     0.8245     0.8181
A_0     C     0.162     0.5939     0.0753
A_2     C     0.6147     0.6279     0.5841
A_2     C     0.8231     0.1506     0.1767
A_1     C     0.7804     0.1465     0.2457
A_0     C     0.294     0.9593     0.0993
A_3     C     0.2015     0.0906     0.4341
A_0     C     0.0961     0.9478     0.9922
A_3     C     0.8443     0.2715     0.1127
A_0     C     0.4473     0.1102     0.2747
A_0     C     0.7044     0.2054     0.601
A_0     C     0.3902     0.1047     0.2308
A_2     C     0.9512     0.5919     0.1649
A_2     C     0.1265     0.4422     0.4868
A_1     C     0.3562     0.3022     0.7536
A_3     C     0.4808     0.3073     0.3446
A_3     C     0.0226     0.5122     0.581
A_0     C     0.0786     0.1434     0.7993
A_2     C     0.5805     0.038     0.6206
A_0     C     0.661     0.0024     0.827
A_3     C     0.0193     0.458     0.5157
A_0     C     0.1743     0.479     0.22
A_1     C     0.2431     0.0449     0.2515
A_2     C     0.4605     0.9031     0.1232
A_2     C     0.5419     0.1187     0.9394
A_3     C     0.4713     0.6646     0.8633
A_0     C     0.3369     0.7714     0.1537
A_0     C     0.4793     0.2426     0.5731
A_3     C     0.6141     0.119     0.7088
A_2     C     0.5152     0.3863     0.4153
A_2     C     0.1669     0.1015     0.323
A_1     C     0.0459     0.4128     0.0011
A_1     C     0.2014     0.0058     0.4458
A_3     C     0.2044     0.3589     0.4839
A_1     C     0.5973     0.6826     0.2221
A_3     C     0.0902     0.5941     0.69
A_0     C     0.1469     0.883     0.3665
A_0     C     0.6509     0.4264     0.5202
A_0     C     0.0692     0.335     0.7785
A_1     C     0.4012     0.7742     0.0814
A_3     C     0.8363     0.0627     0.495
A_3     C     0.7878     0.8678     0.0988
A_1     C     0.3906     0.1903     0.1258
A_3     C     0.6869     0.8066     0.7837
A_0     C     0.8256     0.55     0.732
A_3     C     0.9635     0.1904     0.8352
A_1     C     0.3746     0.2629     0.7089
A_0     C     0.8436     0.5719     0.0351
A_1     C     0.4377     0.0847     0.0754
A_3     C     0.3171     0.9871     0.3185
A_3     C     0.4158     0.2701     0.6261
A_2     C     0.0724     0.3717     0.8527
A_1     C     0.8583     0.801     0.5358
A_2     C     0.2498     0.8065     0.8687
A_0     C     0.3274     0.81     0.7443
A_0     C     0.5428     0.7169     0.524
A_1     C     0.5414     0.6862     0.2182
A_0     C     0.0679     0.681     0.1674
A_3     C     0.4168     0.3177     0.3151
A_3     C     0.2522     0.8183     0.3727
A_1     C     0.2727     0.1559     0.7218
A_1     C     0.0741     0.0572     0.1469
A_2     C     0.0827     0.3276     0.8611
A_1     C     0.9867     0.343     0.3699
A_1     C     0.4239     0.8061     0.2266
A_0     C     0.6341     0.9068     0.5434
A_3     C     0.0751     0.1346     0.2832
A_3     C     0.6008     0.2757     0.0872
A_3     C     0.6275     0.7121     0.2605
A_0     C     0.3201     0.8285     0.5905
A_3     C     0.2043     0.8604     0.9518
A_3     C     0.0684     0.9901     0.7831
A_1     C     0.3076     0.8819     0.3696
A_0     C     0.3589     0.7101     0.6246
A_0     C     0.0596     0.5794     0.4116
A_0     C     0.1062     0.1216     0.3416
A_3     C     0.1045     0.5301     0.1465
A_0     C     0.4198     0.0165     0.058
A_2     C     0.5458     0.4834     0.9729
A_3     C     0.1299     0.0858     0.3141
A_0     C     0.944     0.2077     0.7365
A_1     C     0.8016     0.2162     0.9137
A_3     C     0.4604     0.7674     0.4493
A_3     C     0.1783     0.5772     0.0248
A_1     C     0.8292     0.4614     0.5324
A_1     C     0.304     0.0603     0.1013
A_0     C     0.9977     0.4579     0.1364
A_1     C     0.0959     0.2771     0.0042
A_1     C     0.2039     0.7959     0.281
A_0     C     0.2559     0.2929     0.6226
A_1     C     0.4758     0.7093     0.2647
A_2     C     0.9366     0.2699     0.3696
A_0     C     0.3681     0.9087     0.0689
A_0     C     0.521     0.3454     0.1848
A_1     C     0.4208     0.7127     0.884
A_2     C     0.1402     0.7578     0.2966
A_0     C     0.7972     0.3904     0.9005
A_0     C     0.6855     0.3578     0.8273
A_2     C     0.6252     0.732     0.5489
A_3     C     0.6039     0.5985     0.4093
A_1     C     0.8562     0.3478     0.0969
A_2     C     0.1252     0.3018     0.4431
A_1     C     0.328     0.5358     0.7955
A_3     C     0.1097     0.3046     0.1935
A_0     C     0.4061     0.2853     0.9778
A_2     C     0.9943     0.782     0.0637
A_1     C     0.6216     0.5259     0.0501
A_0     C     0.7329     0.5447     0.7932
A_0     C     0.5855     0.8348     0.837
A_3     C     0.7139     0.0165     0.406
A_0     C     0.8751     0.925     0.0558
A_0     C     0.1584     0.9948     0.7927
A_1     C     0.1657     0.8951     0.3716
A_1     C     0.5044     0.8798     0.4915
A_3     C     0.5139     0.6453     0.7361
A_0     C     0.4041     0.5539     0.0104
A_0     C     0.8165     0.634     0.1337
A_0     C     0.3257     0.9659     0.6306
A_1     C     0.0008     0.3811     0.5839
A_1     C     0.7585     0.7782     0.961
A_3     C     0.8076     0.2698     0.6762
A_0     C     0.5357     0.9919     0.7905
A_3     C     0.4434     0.3637     0.4182
A_2     C     0.9596     0.8413     0.9191
A_2     C     0.1819     0.2609     0.8973
A_3     C     0.1686     0.0187     0.1801
A_1     C     0.4593     0.9621     0.7893
A_0     C     0.4533     0.4082     0.8088
A_0     C     0.5261     0.3919     0.3036
A_2     C     0.6024     0.3426     0.3064
A_1     C     0.8286     0.5335     0.7272
A_3     C     0.4269     0.4224     0.5616
A_0     C     0.3088     0.184     0.4876
A_3     C     0.5491     0.9958     0.2228
A_3     C     0.4782     0.0012     0.9433
A_0     C     0.4227     0.1057     0.8614
A_1     C     0.0718     0.6942     0.7625
A_0     C     0.2809     0.561     0.4429
A_1     C     0.9032     0.1561     0.8943
A_3     C     0.0941     0.0013     0.096
A_1     C     0.1405     0.9202     0.5556
A_2     C     0.8051     0.9422     0.666
A_2     C     0.4514     0.5052     0.6302
A_0     C     0.5685     0.0987     0.7098
A_1     C     0.6436     0.7249     0.5459
A_0     C     0.1529     0.5106     0.3552
A_3     C     0.8434     0.7204     0.7648
A_3     C     0.5486     0.2132     0.8487
A_0     C     0.056     0.7185     0.5497
A_2     C     0.7803     0.2885     0.8035
A_0     C     0.2302     0.3075     0.9625
A_2     C     0.0197     0.4835     0.3911
A_2     C     0.042     0.3061     0.9098
A_2     C     0.9004     0.8338     0.6242
A_0     C     0.6527     0.653     0.2075
A_2     C     0.9738     0.7098     0.2756
A_0     C     0.3231     0.3099     0.187
A_0     C     0.1468     0.6552     0.5386
A_0     C     0.2769     0.8472     0.2897
A_2     C     0.4915     0.3797     0.3839
A_3     C     0.098     0.7417     0.38
A_2     C     0.1722     0.4462     0.8053
A_2     C     0.2533     0.1892     0.9252
A_2     C     0.1462     0.8032     0.7692
A_0     C     0.3151     0.6113     0.3698
A_0     C     0.4329     0.6034     0.4245
A_3     C     0.0028     0.6182     0.9548
A_0     C     0.7083     0.4011     0.6359
A_1     C     0.4088     0.9308     0.6708
A_2     C     0.6147     0.9538     0.0727
A_2     C     0.5557     0.0979     0.9849
A_0     C     0.7794     0.2698     0.8949
A_1     C     0.8522     0.2285     0.9136
A_1     C     0.9562     0.0186     0.6114
A_1     C     0.1261     0.3221     0.6527
A_1     C     0.513     0.4082     0.5401
A_2     C     0.5063     0.3311     0.5521
A_0     C     0.6569     0.7159     0.3759
A_1     C     0.7205     0.6855     0.3011
A_0     C     0.8795     0.0299     0.9273
A_3     C     0.2024     0.1487     0.4664
A_2     C     0.3221     0.7334     0.2219
A_0     C     0.8901     0.0268     0.4071
A_2     C     0.3518     0.5727     0.4595
A_2     C     0.3295     0.4588     0.5924
A_0     C     0.3305     0.2039     0.7407
A_0     C     0.0541     0.5014     0.2637
A_0     C     0.4484     0.5169     0.1376
A_2     C     0.5841     0.3307     0.6472
A_1     C     0.3434     0.3279     0.7554
A_1     C     0.0956     0.9169     0.3738
A_2     C     0.0139     0.5645     0.7901
A_2     C     0.6297     0.554     0.0063
A_2     C     0.9692     0.1838     0.6796
A_0     C     0.5007     0.1236     0.5393
A_1     C     0.9997     0.8975     0.4794
A_3     C     0.1565     0.0811     0.8818
A_2     C     0.0302     0.5952     0.0723
A_1     C     0.9261     0.6455     0.292
A_2     C     0.3751     0.2122     0.5797
A_1     C     0.1156     0.9642     0.7596
A_3     C     0.0751     0.5353     0.848
A_1     C     0.6188     0.5858     0.6371
A_0     C     0.9381     0.7564     0.0717
A_1     C     0.8357     0.4785     0.9068
A_1     C     0.1321     0.6826     0.832
A_0     C     0.7458     0.5005     0.5612
A_3     C     0.8918     0.0162     0.5491
A_1     C     0.2312     0.964     0.0214
A_0     C     0.5751     0.1516     0.261
A_2     C     0.7928     0.4898     0.3445
A_0     C     0.3877     0.2764     0.5659
A_0     C     0.0904     0.7119     0.2338
A_3     C     0.7911     0.1019     0.7516
A_3     C     0.3369     0.3786     0.0448
A_2     C     0.5636     0.3071     0.9913
A_2     C     0.115     0.896     0.0204
A_0     C     0.8358     0.2136     0.2873
A_2     C     0.8354     0.8678     0.1521
A_1     C     0.738     0.8882     0.9157
A_2     C     0.117     0.1918     0.6528
A_0     C     0.5203     0.8219     0.2217
A_0     C     0.2587     0.3175     0.0195
A_2     C     0.9638     0.0706     0.8902
A_1     C     0.679     0.4499     0.3312
A_1     C     0.5548     0.0478     0.9439
A_2     C     0.4059     0.8156     0.515
A_0     C     0.2491     0.961     0.3532
A_0     C     0.9826     0.0307     0.2002
A_0     C     0.6553     0.1664     0.69
A_3     C     0.9692     0.6162     0.0274
A_0     C     0.4116     0.1969     0.4151
