MAT-30

loop_
_symmetry_equiv_pos_as_xyz
  x,y,z
_cell_length_a          21.8828
_cell_length_b          51.2583
_cell_length_c          36.0113
_cell_angle_alpha       90.0000
_cell_angle_beta        90.0000
_cell_angle_gamma       90.0000
loop_
_atom_site_label
_atom_site_type_symbol
_atom_site_fract_x
_atom_site_fract_y
_atom_site_fract_z
A_0     C     0.2615     0.7439     0.0299
A_0     C     0.7869     0.0167     0.9345
A_1     C     0.969     0.5435     0.2561
A_3     C     0.6113     0.7147     0.1331
A_1     C     0.5467     0.3696     0.9381
A_1     C     0.8327     0.487     0.2841
A_0     C     0.5126     0.1292     0.9076
A_0     C     0.5501     0.2638     0.1393
A_2     C     0.1107     0.0198     0.1596
A_1     C     0.5768     0.8793     0.6266
A_0     C     0.3155     0.7341     0.2634
A_2     C     0.8233     0.3493     0.9801
A_1     C     0.3992     0.8928     0.4175
A_0     C     0.1818     0.3656     0.2231
A_1     C     0.6131     0.6592     0.6933
A_3     C     0.6056     0.3584     0.0376
A_1     C     0.2325     0.3955     0.543
A_1     C     0.4667     0.433     0.1669
A_1     C     0.1309     0.8872     0.9023
A_3     C     0.3157     0.7799     0.0005
A_2     C     0.214     0.3693     0.343
A_3     C     0.8903     0.8504     0.31
A_3     C     0.9276     0.5419     0.7366
A_2     C     0.8432     0.5362     0.8818
A_3     C     0.1099     0.3569     0.2905
A_3     C     0.0134     0.1112     0.336
A_3     C     0.469     0.9627     0.0389
A_3     C     0.8264     0.7517     0.775
A_2     C     0.9858     0.7367     0.0027
A_2     C     0.0247     0.2899     0.9739
A_2     C     0.7904     0.9414     0.1819
A_2     C     0.7119     0.8113     0.8446
A_0     C     0.0048     0.5436     0.6861
A_2     C     0.4128     0.252     0.3278
A_1     C     0.5874     0.0683     0.0951
A_0     C     0.7839     0.6483     0.5767
A_2     C     0.9534     0.4958     0.4149
A_1     C     0.6248     0.9193     0.7463
A_1     C     0.7897     0.8921     0.548
A_2     C     0.4235     0.6122     0.2018
A_0     C     0.83     0.6081     0.9027
A_1     C     0.067     0.076     0.2242
A_2     C     0.7684     0.129     0.9504
A_3     C     0.4083     0.6829     0.6714
A_3     C     0.6797     0.0624     0.1572
A_1     C     0.6055     0.5794     0.827
A_3     C     0.5634     0.7346     0.5309
A_1     C     0.8294     0.4992     0.3053
A_1     C     0.5621     0.0169     0.1517
A_0     C     0.1145     0.4654     0.9426
A_3     C     0.6319     0.0076     0.411
A_3     C     0.9716     0.1634     0.9492
A_0     C     0.3607     0.4521     0.8988
A_2     C     0.3022     0.9251     0.4536
A_2     C     0.3153     0.6078     0.7247
A_0     C     0.0601     0.0218     0.4221
A_3     C     0.2213     0.1768     0.1939
A_1     C     0.5828     0.034     0.984
A_0     C     0.4262     0.5242     0.1953
A_0     C     0.7844     0.3134     0.2916
A_1     C     0.1889     0.319     0.5882
A_0     C     0.2537     0.9223     0.5443
A_3     C     0.3996     0.5968     0.5175
A_0     C     0.0852     0.4223     0.8909
A_3     C     0.5275     0.7148     0.7523
A_3     C     0.148     0.7569     0.2272
A_3     C     0.3353     0.2028     0.0753
A_3     C     0.0727     0.5812     0.6414
A_1     C     0.9666     0.518     0.2511
A_0     C     0.7299     0.357     0.5204
A_1     C     0.5534     0.9817     0.1178
A_2     C     0.3712     0.7976     0.6655
A_1     C     0.5973     0.6843     0.0734
A_0     C     0.5563     0.6882     0.0931
A_2     C     0.2754     0.1149     0.6628
A_2     C     0.9674     0.4864     0.65
A_2     C     0.9502     0.8283     0.5861
A_0     C     0.8287     0.6352     0.2969
A_3     C     0.9161     0.3226     0.2116
A_1     C     0.2551     0.5151     0.1697
A_0     C     0.097     0.8754     0.4992
A_1     C     0.6645     0.2612     0.8516
A_3     C     0.3003     0.9741     0.5357
A_2     C     0.0015     0.69     0.1847
A_0     C     0.2612     0.365     0.1181
A_0     C     0.94     0.0268     0.0659
A_0     C     0.7496     0.2134     0.4514
A_1     C     0.664     0.3024     0.0227
A_0     C     0.6951     0.0762     0.4955
A_2     C     0.6469     0.5716     0.3027
A_3     C     0.3651     0.8169     0.055
A_0     C     0.3521     0.7198     0.7118
A_3     C     0.0794     0.7209     0.9667
A_1     C     0.6379     0.4854     0.0845
A_2     C     0.0828     0.2433     0.6956
A_0     C     0.2096     0.1736     0.3971
A_0     C     0.8408     0.4658     0.5249
A_2     C     0.2573     0.3405     0.7034
A_3     C     0.5594     0.3057     0.7048
A_2     C     0.7609     0.3091     0.7788
A_0     C     0.7779     0.9302     0.4745
A_1     C     0.6756     0.614     0.9298
A_1     C     0.0366     0.4604     0.8174
A_2     C     0.5407     0.7191     0.9292
A_1     C     0.3816     0.3588     0.4551
A_2     C     0.3915     0.0515     0.3204
A_1     C     0.7473     0.8159     0.7331
A_1     C     0.5217     0.4746     0.2301
A_0     C     0.4842     0.525     0.0262
A_3     C     0.1766     0.1114     0.8693
A_1     C     0.6996     0.238     0.5981
A_1     C     0.6787     0.9396     0.0312
A_1     C     0.3241     0.6675     0.0888
A_2     C     0.5517     0.6631     0.4141
A_3     C     0.8085     0.1282     0.1762
A_3     C     0.2371     0.948     0.5996
A_1     C     0.0299     0.635     0.3532
A_0     C     0.834     0.3077     0.0143
A_0     C     0.5585     0.0807     0.6212
A_3     C     0.3207     0.0922     0.1043
A_3     C     0.8363     0.0367     0.8873
A_1     C     0.5885     0.4703     0.1053
A_0     C     0.7547     0.9558     0.3367
A_1     C     0.6032     0.3592     0.0033
A_1     C     0.7359     0.701     0.7742
A_0     C     0.04     0.4316     0.5687
A_0     C     0.4056     0.0517     0.0596
A_0     C     0.2344     0.3043     0.2499
A_2     C     0.3991     0.6786     0.8285
A_3     C     0.38     1.0     0.0237
A_2     C     0.5157     0.8465     0.9896
A_1     C     0.0991     0.7457     0.0493
A_3     C     0.288     0.0459     0.6033
A_3     C     0.8692     0.1402     0.1439
A_3     C     0.9814     0.8472     0.4666
A_0     C     0.2919     0.8703     0.8381
A_3     C     0.8317     0.6221     0.3666
A_1     C     0.412     0.2572     0.9685
A_1     C     0.4106     0.6178     0.6824
A_3     C     0.1501     0.5306     0.889
A_1     C     0.133     0.8365     0.2743
A_3     C     0.8189     0.198     0.8124
A_0     C     0.5071     0.8219     0.9249
A_2     C     0.703     0.6864     0.4469
A_2     C     0.2003     0.0278     0.9496
A_1     C     0.1196     0.0932     0.0252
A_2     C     0.5538     0.0517     0.937
A_1     C     0.319     0.5533     0.0509
A_3     C     0.9987     0.0194     0.8881
A_1     C     0.5458     0.3684     0.4195
A_2     C     0.6992     0.0413     0.1
A_3     C     0.8853     0.0006     0.3569
A_2     C     0.0971     0.6936     0.3265
A_1     C     0.0646     0.7461     0.865
A_0     C     0.287     0.2122     0.7425
A_0     C     0.5768     0.5881     0.8148
A_0     C     0.7554     0.0271     0.3299
A_1     C     0.9837     0.7667     0.9254
A_1     C     0.4194     0.4257     0.0093
A_3     C     0.7     0.5557     0.2184
A_1     C     0.8626     0.3986     0.9308
A_2     C     0.774     0.4395     0.307
A_1     C     0.5582     0.7077     0.9543
A_0     C     0.9671     0.3473     0.0645
A_2     C     0.6938     0.534     0.4625
A_2     C     0.9882     0.303     0.529
A_2     C     0.1249     0.1458     0.5624
A_0     C     0.151     0.1485     0.9598
A_3     C     0.0863     0.4949     0.8034
A_1     C     0.4363     0.6195     0.2024
A_2     C     0.3147     0.6678     0.1847
A_2     C     0.3246     0.0531     0.8504
A_2     C     0.769     0.1721     0.6421
A_1     C     0.1782     0.2136     0.844
A_0     C     0.3128     0.5912     0.1764
A_3     C     0.3142     0.8039     0.8997
A_0     C     0.6896     0.7574     0.4436
A_3     C     0.6093     0.6473     0.1276
A_3     C     0.7766     0.0452     0.0591
A_1     C     0.1732     0.2924     0.4607
A_0     C     0.3874     0.7353     0.668
A_3     C     0.1102     0.8136     0.6934
A_2     C     0.5314     0.3129     0.4844
A_2     C     0.6304     0.4202     0.847
A_1     C     0.3494     0.7121     0.5075
A_3     C     0.7078     0.5369     0.5648
A_0     C     0.0093     0.0662     0.0539
A_1     C     0.5034     0.2691     0.7412
A_2     C     0.7982     0.8676     0.8682
A_3     C     0.5644     0.5877     0.5865
A_1     C     0.7698     0.2839     0.6736
A_0     C     0.2523     0.5839     0.2084
A_1     C     0.9487     0.1095     0.9927
A_3     C     0.6769     0.2607     0.6557
A_0     C     0.5181     0.0112     0.5489
A_0     C     0.619     0.6833     0.2438
A_3     C     0.6364     0.3842     0.4876
A_1     C     0.4294     0.8121     0.6206
A_0     C     0.511     0.8519     0.755
A_1     C     0.6532     0.0656     0.1771
A_1     C     0.987     0.342     0.5105
A_3     C     0.0903     0.2389     0.6366
A_1     C     0.1734     0.4799     0.9949
A_2     C     0.2618     0.5746     0.9055
A_2     C     0.313     0.3961     0.9285
A_1     C     0.1671     0.8461     0.3299
A_0     C     0.3775     0.76     0.8205
A_0     C     0.2111     0.1566     0.9203
A_2     C     0.2979     0.4692     0.4157
A_3     C     0.4247     0.6126     0.0534
A_0     C     0.1715     0.1561     0.8589
A_2     C     0.2973     0.9112     0.5909
A_1     C     0.5931     0.7867     0.0471
A_0     C     0.8781     0.6529     0.7971
A_2     C     0.5226     0.565     0.3306
A_1     C     0.3289     0.7716     0.3791
A_2     C     0.6553     0.3379     0.8146
A_1     C     0.4277     0.6885     0.8606
A_0     C     0.6449     0.2749     0.5024
A_1     C     0.9282     0.3895     0.0567
A_0     C     0.1787     0.7077     0.1478
A_0     C     0.0824     0.284     0.6449
A_0     C     0.2065     0.791     0.2405
A_0     C     0.4938     0.7325     0.4562
A_3     C     0.649     0.8178     0.0469
A_2     C     0.6039     0.7057     0.9353
A_1     C     0.2897     0.0761     0.4291
A_0     C     0.7551     0.6775     0.7029
A_3     C     0.6148     0.1498     0.6512
A_3     C     0.2257     0.0409     0.47
A_1     C     0.1879     0.7218     0.1353
A_0     C     0.3804     0.2855     0.0688
A_3     C     0.2548     0.2998     0.2236
A_2     C     0.6855     0.4083     0.6347
A_1     C     0.2649     0.5351     0.0282
A_1     C     0.5399     0.8749     0.4492
A_1     C     0.4365     0.0037     0.6762
A_0     C     0.5787     0.1288     0.7118
A_3     C     0.3129     0.3133     0.5535
A_3     C     0.0343     0.7449     0.4587
A_1     C     0.382     0.4215     0.4845
A_0     C     0.8499     0.7512     0.6486
A_0     C     0.436     0.9736     0.7298
A_0     C     0.2941     0.2782     0.2211
A_1     C     0.7689     0.4862     0.7832
A_3     C     0.0596     0.6963     0.2294
A_1     C     0.5498     0.9012     0.5904
A_0     C     0.0879     0.174     0.3944
A_3     C     0.0724     0.3364     0.8282
A_2     C     0.1962     0.9923     0.7733
A_1     C     0.6796     0.9377     0.9367
A_2     C     0.9464     0.7957     0.5868
A_0     C     0.2785     0.1872     0.8156
A_0     C     0.575     0.0349     0.9672
A_0     C     0.752     0.2722     0.4504
A_2     C     0.8138     0.9391     0.4262
A_0     C     0.2953     0.8474     0.1524
A_3     C     0.687     0.2056     0.5463
A_0     C     0.2587     0.6227     0.0388
A_0     C     0.6021     0.4553     0.1854
A_2     C     0.9667     0.2797     0.9063
A_0     C     0.9883     0.4503     0.0226
A_1     C     0.7433     0.2479     0.4845
A_2     C     0.8884     0.424     0.6794
A_0     C     0.6899     0.5206     0.2141
A_1     C     0.8152     0.0601     0.5391
A_0     C     0.9157     0.4304     0.6479
A_0     C     0.9012     0.0441     0.0997
A_1     C     0.7242     0.3053     0.5318
A_3     C     0.4039     0.0126     0.4128
A_3     C     0.6057     0.062     0.1296
A_3     C     0.3672     0.1985     0.6072
A_1     C     0.9213     0.9415     0.0211
A_1     C     0.2291     0.2229     0.4227
A_2     C     0.8034     0.2449     0.6947
A_1     C     0.3699     0.7824     0.524
A_0     C     0.7135     0.3377     0.1911
A_1     C     0.3596     0.9264     0.6671
A_0     C     0.7011     0.7963     0.6834
A_2     C     0.8763     0.6891     0.4837
A_2     C     0.825     0.79     0.7177
A_3     C     0.3679     0.299     0.0911
A_0     C     0.9792     0.0698     0.5363
A_2     C     0.9151     0.8619     0.6916
A_2     C     0.276     0.6774     0.4659
A_1     C     0.3575     0.0722     0.0905
A_3     C     0.3812     0.051     0.9985
A_2     C     0.89     0.5248     0.0963
A_2     C     0.7904     0.0179     0.3108
A_1     C     0.1301     0.179     0.962
A_2     C     0.2818     0.9071     0.2432
A_3     C     0.7791     0.3106     0.0501
A_2     C     0.4649     0.3908     0.5716
A_3     C     0.0868     0.9918     0.8646
A_1     C     0.527     0.715     0.6503
A_1     C     0.0312     0.4879     0.5621
A_0     C     0.9015     0.4212     0.1394
A_2     C     0.1281     0.4879     0.5613
A_3     C     0.0623     0.4692     0.7141
A_1     C     0.1383     0.7566     0.5856
A_2     C     0.5113     0.1625     0.6036
A_2     C     0.422     0.2039     0.9978
A_3     C     0.4202     0.8813     0.3383
A_3     C     0.9161     0.601     0.2295
A_0     C     0.966     0.5897     0.4699
A_3     C     0.6112     0.808     0.6987
A_3     C     0.2448     0.0687     0.7493
A_0     C     0.0341     0.9138     0.3523
A_3     C     0.0604     0.3304     0.6365
A_2     C     0.3147     0.0595     0.6552
A_0     C     0.8188     0.0877     0.5976
A_0     C     0.0847     0.0791     0.6629
A_0     C     0.5344     0.9811     0.1508
A_0     C     0.2509     0.0317     0.7027
A_0     C     0.7768     0.4699     0.3058
A_0     C     0.9466     0.4448     0.2384
A_0     C     0.5348     0.5902     0.3449
A_0     C     0.3081     0.2165     0.2829
A_2     C     0.207     0.9145     0.5471
A_2     C     0.8154     0.4954     0.6439
A_2     C     0.6603     0.2439     0.5902
A_3     C     0.8261     0.7172     0.5872
A_3     C     0.9853     0.136     0.4123
A_3     C     0.0817     0.8872     0.4519
A_3     C     0.6928     0.3529     0.455
A_1     C     0.0611     0.5237     0.5609
A_1     C     0.3282     0.3023     0.941
A_3     C     0.1113     0.1656     0.8613
A_2     C     0.1656     0.8024     0.2793
A_3     C     0.174     0.044     0.1382
A_2     C     0.4101     0.8874     0.9253
A_0     C     0.3257     0.2859     0.3727
A_0     C     0.7763     0.628     0.329
A_1     C     0.6176     0.4114     0.6146
A_0     C     0.3634     0.3059     0.5399
A_2     C     0.5222     0.0027     0.5655
A_1     C     0.4209     0.5839     0.0684
A_3     C     0.6962     0.0609     0.4913
A_0     C     0.7585     0.6653     0.9926
A_0     C     0.5675     0.0234     0.014
A_3     C     0.0665     0.8687     0.2444
A_2     C     0.6141     0.195     0.9716
A_0     C     0.9948     0.0177     0.9835
A_3     C     0.9525     0.3818     0.4457
A_0     C     0.4187     0.6589     0.361
A_3     C     0.4037     0.4095     0.8428
A_3     C     0.1516     0.9056     0.0436
A_3     C     0.8874     0.7476     0.0949
A_2     C     0.7191     0.2289     0.4791
A_0     C     0.7141     0.743     0.22
A_3     C     0.4785     0.0186     0.9957
A_2     C     0.3838     0.0938     0.1814
A_1     C     0.1923     0.9229     0.7597
A_0     C     0.4221     0.3958     0.4496
A_3     C     0.1481     0.8319     0.2127
A_3     C     0.4358     0.5035     0.1224
A_2     C     0.258     0.2002     0.7253
A_2     C     0.6321     0.1213     0.5925
A_1     C     0.2563     0.1124     0.8961
A_3     C     0.5126     0.9396     0.2249
A_3     C     0.9282     0.2343     0.1483
A_2     C     0.0748     0.0626     0.8128
A_2     C     0.8538     0.4844     0.2488
A_3     C     0.3965     0.7209     0.4902
A_2     C     0.2834     0.8315     0.8077
A_2     C     0.6858     0.2848     0.3892
A_0     C     0.7887     0.1342     0.9649
A_1     C     0.6951     0.8614     0.2569
A_2     C     0.6169     0.6475     0.9028
A_1     C     0.9807     0.2691     0.5536
A_2     C     0.954     0.304     0.2475
A_0     C     0.9309     0.4519     0.4796
A_2     C     0.8771     0.0944     0.7461
A_2     C     0.6744     0.0436     0.6781
A_2     C     0.8682     0.7034     0.296
A_3     C     0.8901     0.0436     0.9306
A_3     C     0.0582     0.5988     0.5924
A_2     C     0.1346     0.662     0.1914
A_1     C     0.8114     0.1606     0.6556
A_1     C     0.1555     0.2065     0.9557
A_1     C     0.9256     0.5965     0.0974
A_3     C     0.611     0.4688     0.0882
A_2     C     0.2834     0.925     0.5725
A_1     C     0.0125     0.2002     0.6246
A_3     C     0.3077     0.0951     0.5185
A_0     C     0.4996     0.903     0.8845
A_1     C     0.5073     0.3544     0.0595
A_0     C     0.6324     0.4617     0.8481
A_1     C     0.9154     0.8399     0.8914
A_3     C     0.8024     0.9236     0.1946
A_2     C     0.768     0.4001     0.7392
A_2     C     0.6746     0.2069     0.1196
A_1     C     0.181     0.5917     0.4889
A_2     C     0.258     0.5298     0.6987
A_2     C     0.3838     0.3573     0.5285
A_3     C     0.3661     0.3489     0.329
A_2     C     0.6681     0.6546     0.887
A_2     C     0.8977     0.9948     0.058
A_0     C     0.9062     0.1043     0.6719
A_0     C     0.452     0.5076     0.5321
A_3     C     0.7139     0.3424     0.3123
A_0     C     0.2704     0.2025     0.0427
A_1     C     0.4002     0.4842     0.7815
A_0     C     0.2246     0.2278     0.1699
A_0     C     0.9199     0.8657     0.0626
A_1     C     0.4693     0.498     0.6838
A_3     C     0.095     0.7171     0.7819
A_3     C     0.7559     0.6699     0.5569
A_2     C     0.5231     0.7803     0.0675
A_1     C     0.9133     0.5515     0.0021
A_3     C     0.2779     0.3328     0.7857
A_0     C     0.6819     0.9937     0.567
A_2     C     0.3032     0.707     0.7712
A_2     C     0.9124     0.1857     0.609
A_3     C     0.0855     0.621     0.6902
A_2     C     0.5211     0.7595     0.3887
A_3     C     0.3982     0.8085     0.8712
A_3     C     0.0127     0.8264     0.4055
A_1     C     0.3344     0.2651     0.0325
A_3     C     0.2294     0.7665     0.0292
A_0     C     0.3231     0.7278     0.6127
A_2     C     0.7369     0.0981     0.6841
A_3     C     0.3847     0.0662     0.37
A_1     C     0.8852     0.2835     0.7365
A_3     C     0.6674     0.2277     0.3753
A_3     C     0.5441     0.1611     0.4062
A_3     C     0.8661     0.4407     0.5789
A_3     C     0.7205     0.3246     0.4277
A_3     C     0.0713     0.4444     0.3575
A_1     C     0.2217     0.5098     0.706
A_1     C     0.9599     0.8946     0.7581
A_0     C     0.4021     0.5706     0.3798
A_2     C     0.633     0.3659     0.2829
A_2     C     0.0694     0.2481     0.9117
A_1     C     0.6095     0.5287     0.9219
A_1     C     0.5707     0.1833     0.7749
A_0     C     0.5234     0.0894     0.5702
A_1     C     0.2294     0.1678     0.3866
A_2     C     0.0971     0.7293     0.0206
A_2     C     0.0263     0.2386     0.0359
A_0     C     0.1202     0.6786     0.0653
A_1     C     0.4572     0.1012     0.5131
A_0     C     0.3078     0.9513     0.7349
A_3     C     0.7876     0.7045     0.2278
A_0     C     0.0694     0.9143     0.7338
A_3     C     0.8237     0.2828     0.0629
A_0     C     0.7579     0.8701     0.5898
A_1     C     0.0182     0.9705     0.1405
A_3     C     0.7765     0.9906     0.8187
A_0     C     0.9695     0.7807     0.3606
A_3     C     0.1995     0.1865     0.5934
A_1     C     0.9418     0.7659     0.6355
A_1     C     0.0842     0.5811     0.8807
A_1     C     0.8363     0.7824     0.7535
A_0     C     0.3339     0.9742     0.7449
A_1     C     0.1634     0.1135     0.6079
A_0     C     0.654     0.1046     0.4668
A_0     C     0.8558     0.6467     0.2973
A_1     C     0.6195     0.0683     0.2928
A_1     C     0.3307     0.0692     0.3615
A_2     C     0.9942     0.2762     0.3314
A_2     C     0.599     0.2173     0.2045
A_0     C     0.1703     0.4525     0.816
A_3     C     0.6811     0.5254     0.4381
A_3     C     0.0084     0.4606     0.4897
A_0     C     0.7136     0.5562     0.7193
A_2     C     0.5463     0.6446     0.4882
A_1     C     0.7406     0.7017     0.8304
A_1     C     0.8396     0.932     0.5262
A_0     C     0.334     0.7104     0.2911
A_1     C     0.1774     0.144     0.9722
A_3     C     0.5262     0.2309     0.2888
A_1     C     0.0223     0.0875     0.6953
A_3     C     0.9805     0.681     0.4504
A_0     C     0.0361     0.8058     0.998
A_0     C     0.894     0.7338     0.3964
A_0     C     0.8248     0.72     0.5007
A_1     C     0.7532     0.1254     0.6351
A_0     C     0.6228     0.5421     0.4876
A_0     C     0.0478     0.7499     0.8812
A_0     C     0.1517     0.5031     0.9329
A_3     C     0.2263     0.0652     0.525
A_3     C     0.7309     0.7226     0.6339
A_1     C     0.5331     0.1906     0.0682
A_0     C     0.9383     0.6637     0.8393
A_1     C     0.161     0.0249     0.4351
A_3     C     0.0091     0.6999     0.679
A_0     C     0.31     0.7519     0.0191
A_1     C     0.1376     0.2665     0.9814
A_3     C     0.4864     0.6387     0.0682
A_3     C     0.3632     0.6149     0.0396
A_0     C     0.9044     0.8167     0.6785
A_2     C     0.4307     0.2598     0.3017
A_2     C     0.2727     0.6738     0.7899
A_0     C     0.7295     0.8814     0.5765
A_3     C     0.0847     0.6578     0.7606
A_0     C     0.5828     0.2318     0.1844
A_3     C     0.8754     0.9301     0.0234
A_2     C     0.3642     0.5121     0.7424
A_0     C     0.1886     0.3542     0.5554
A_0     C     0.7918     0.9018     0.4718
A_3     C     0.028     0.7222     0.1472
A_0     C     0.5811     0.5836     0.7579
A_2     C     0.5147     0.7249     0.0525
A_0     C     0.8275     0.8554     0.8995
A_1     C     0.3144     0.61     0.4431
A_0     C     0.9033     0.5783     0.0449
A_3     C     0.2669     0.5223     0.75
A_3     C     0.8761     0.3678     0.7058
A_1     C     0.0871     0.6496     0.2894
A_3     C     0.3499     0.8067     0.7196
A_1     C     0.4146     0.8314     0.9905
A_3     C     0.6791     0.0295     0.2421
A_1     C     0.5618     0.7933     0.3763
A_3     C     0.7604     0.9623     0.706
A_3     C     0.3281     0.6337     0.4647
A_2     C     0.777     0.8161     0.2613
A_1     C     0.6706     0.5645     0.9057
A_3     C     0.9551     0.2853     0.0562
A_3     C     0.1883     0.2477     0.6325
A_2     C     0.4728     0.0121     0.0557
A_2     C     0.8147     0.2343     0.5739
A_1     C     0.1153     0.8541     0.1587
A_0     C     0.1686     0.1816     0.5709
A_3     C     0.4449     0.3556     0.9004
A_2     C     0.3089     0.871     0.4352
A_3     C     0.8206     0.8982     0.8102
A_2     C     0.2599     0.6526     0.0603
A_2     C     0.0649     0.9695     0.0224
A_3     C     0.1408     0.615     0.8404
A_3     C     0.5788     0.3073     0.6228
A_1     C     0.2775     0.5576     0.9539
A_3     C     0.2571     0.9185     0.8544
A_2     C     0.7739     0.3918     0.4669
A_3     C     0.9476     0.0441     0.0226
A_1     C     0.7042     0.796     0.6844
A_0     C     0.9199     0.8944     0.9422
A_3     C     0.7495     0.4756     0.2478
A_3     C     0.0847     0.0082     0.588
A_0     C     0.3186     0.6088     0.3587
A_1     C     0.1755     0.4563     0.6112
A_3     C     0.1433     0.8339     0.009
A_1     C     0.4576     0.8882     0.5652
A_3     C     0.6083     0.9378     0.0778
A_1     C     0.8064     0.2704     0.6109
A_1     C     0.2806     0.5753     0.3383
A_2     C     0.4262     0.3355     0.8659
A_2     C     0.1049     0.4679     0.719
A_3     C     0.5903     0.7997     0.6119
A_1     C     0.705     0.141     0.062
A_3     C     0.0071     0.5808     0.2928
A_1     C     0.7085     0.7191     0.926
A_3     C     0.8557     0.7319     0.9263
A_0     C     0.6339     0.519     0.1943
A_2     C     0.6876     0.8036     0.6473
A_1     C     0.9064     0.701     0.4959
A_1     C     0.6454     0.4638     0.8947
A_1     C     0.4979     0.1721     0.6589
A_2     C     0.7785     0.2432     0.9112
A_3     C     0.1225     0.5685     0.1742
A_2     C     0.2144     0.0066     0.922
A_0     C     0.8219     0.699     0.212
A_0     C     0.4915     0.8081     0.6405
A_0     C     0.3924     0.8555     0.4864
A_3     C     0.2962     0.4737     0.934
A_3     C     0.5323     0.9535     0.2121
A_3     C     0.3191     0.2556     0.6836
A_3     C     0.8843     0.1818     0.3451
A_3     C     0.8188     0.3658     0.2376
A_3     C     0.1248     0.8844     0.2451
A_1     C     0.7839     0.8229     0.5955
A_3     C     0.0084     0.3706     0.672
A_3     C     0.7141     0.571     0.3883
A_1     C     0.7895     0.1581     0.7425
A_1     C     0.8504     0.0452     0.9388
A_0     C     0.207     0.7786     0.4631
A_2     C     0.4154     0.8096     0.4952
A_2     C     0.1914     0.7564     0.2805
A_1     C     0.2977     0.3792     0.8979
A_0     C     0.1148     0.2357     0.006
A_1     C     0.4498     0.5547     0.1998
A_0     C     0.3049     0.4715     0.5425
A_2     C     0.7505     0.1106     0.2249
A_0     C     0.1216     0.4728     0.1299
A_0     C     0.5994     0.7437     0.1168
A_0     C     0.417     0.6671     0.2445
A_3     C     0.6043     0.3934     0.3869
A_3     C     0.0808     0.2902     0.0391
A_3     C     0.4495     0.1692     0.3961
A_0     C     0.7694     0.2783     0.7856
A_1     C     0.9878     0.3069     0.7194
A_0     C     0.8981     0.5799     0.4261
A_1     C     0.8641     0.2651     0.7308
A_1     C     0.4977     0.1171     0.6555
A_2     C     0.8078     0.0843     0.1437
A_1     C     0.1854     0.5545     0.1038
A_2     C     0.2492     0.3055     0.8464
A_2     C     0.0761     0.5454     0.0396
A_3     C     0.1496     0.6907     0.5118
A_0     C     0.0029     0.5725     0.6002
A_1     C     0.3978     0.9741     0.6801
A_2     C     0.4968     0.0647     0.6286
A_2     C     0.2769     0.8619     0.1305
A_2     C     0.5137     0.1236     0.5871
A_3     C     0.8928     0.9494     0.4718
A_0     C     0.7671     0.039     0.8943
A_1     C     0.4766     0.9761     0.4986
A_0     C     0.3235     0.5771     0.6645
A_3     C     0.7873     0.8195     0.3483
A_2     C     0.324     0.3724     0.1965
A_3     C     0.9788     0.6466     0.9568
A_2     C     0.3785     0.0475     0.4744
A_1     C     0.3083     0.8993     0.9074
A_1     C     0.4802     0.2052     0.3762
A_3     C     0.8805     0.4058     0.4733
A_0     C     0.9328     0.3525     0.1953
A_1     C     0.0965     0.2804     0.9792
A_2     C     0.9234     0.21     0.4124
A_1     C     0.9154     0.03     0.9152
A_2     C     0.2285     0.716     0.1624
A_3     C     0.9848     0.8896     0.974
A_3     C     0.4898     0.0843     0.3805
A_3     C     0.738     0.1235     0.7745
A_1     C     0.0305     0.1097     0.3891
A_3     C     0.3021     0.2468     0.9619
A_2     C     0.9123     0.6908     0.1507
A_1     C     0.1579     0.2889     0.0364
A_3     C     0.2958     0.0669     0.8073
A_2     C     0.8063     0.9818     0.4206
A_0     C     0.7261     0.401     0.9278
A_1     C     0.6909     0.1701     0.2588
A_2     C     0.1522     0.9992     0.9435
A_3     C     0.0093     0.2596     0.3704
A_2     C     0.0002     0.0409     0.7337
A_1     C     0.7947     0.9073     0.5843
A_2     C     0.6683     0.0083     0.0646
A_1     C     0.8123     0.172     0.5318
A_1     C     0.3433     0.4004     0.8304
A_2     C     0.164     0.5146     0.7164
A_1     C     0.5478     0.7579     0.4801
A_2     C     0.3198     0.1456     0.8357
A_1     C     0.0452     0.2891     0.8862
A_1     C     0.4096     0.2768     0.3864
A_2     C     0.0305     0.511     0.5606
A_1     C     0.3511     0.3094     0.6104
A_2     C     0.4004     0.353     0.893
A_1     C     0.7119     0.8582     0.223
A_2     C     0.2951     0.8299     0.4881
A_3     C     0.8831     0.1649     0.7518
A_2     C     0.7013     0.7564     0.5837
A_0     C     0.3895     0.0051     0.7772
A_3     C     0.3711     0.9718     0.5346
A_2     C     0.4485     0.2091     0.1263
A_0     C     0.7624     0.8418     0.6625
A_2     C     0.6936     0.5086     0.2281
A_1     C     0.4042     0.4564     0.6968
A_0     C     0.1684     0.321     0.0748
A_2     C     0.7436     0.0223     0.1005
A_1     C     0.2305     0.3335     0.942
A_2     C     0.5382     0.7218     0.5112
A_3     C     0.1971     0.8524     0.7911
A_0     C     0.5499     0.2805     0.6181
A_2     C     0.3751     0.833     0.2127
A_0     C     0.3417     0.8847     0.5347
A_3     C     0.8367     0.1188     0.8158
A_2     C     0.7368     0.0045     0.1941
A_2     C     0.2976     0.6799     0.4258
A_1     C     0.1563     0.8549     0.3498
A_2     C     0.6535     0.1281     0.5833
A_0     C     0.7419     0.0803     0.6675
A_2     C     0.008     0.3099     0.6894
A_0     C     0.3962     0.4733     0.2518
A_2     C     0.4032     0.242     0.6289
A_3     C     0.5323     0.523     0.6102
A_2     C     0.3513     0.613     0.7527
A_1     C     0.2069     0.0572     0.175
A_3     C     0.9792     0.8873     0.1038
A_2     C     0.86     0.806     0.9136
A_3     C     0.1538     0.0165     0.8601
A_0     C     0.7998     0.7919     0.7555
A_2     C     0.8119     0.7731     0.5468
A_2     C     0.4913     0.3627     0.3236
A_3     C     0.9075     0.5535     0.4218
A_3     C     0.1965     0.298     0.2976
A_3     C     0.9903     0.952     0.5286
A_1     C     0.7767     0.05     0.2826
A_0     C     0.7278     0.4546     0.091
A_1     C     0.9755     0.5958     0.467
A_3     C     0.5776     0.3381     0.2078
A_2     C     0.7944     0.7663     0.5591
A_3     C     0.3692     0.1786     0.0559
A_3     C     0.0112     0.1741     0.1472
A_2     C     0.8615     0.0291     0.4857
A_3     C     0.2642     0.2777     0.2639
A_1     C     0.9575     0.06     0.5295
A_2     C     0.0186     0.4857     0.7951
A_3     C     0.5564     0.7369     0.7875
A_2     C     0.3932     0.4822     0.1746
A_3     C     0.5865     0.7516     0.0602
A_0     C     0.2623     0.5918     0.6351
A_3     C     0.671     0.2373     0.6764
A_2     C     0.869     0.6445     0.0457
A_3     C     0.4284     0.5876     0.371
A_1     C     0.2313     0.9175     0.8477
A_3     C     0.0953     0.3681     0.7151
A_1     C     0.2742     0.2787     0.3613
A_0     C     0.7656     0.8157     0.8026
A_2     C     0.2104     0.0196     0.2324
A_2     C     0.2352     0.3305     0.3176
A_1     C     0.3911     0.5644     0.4238
A_1     C     0.4761     0.3222     0.4473
A_3     C     0.9846     0.1008     0.8889
A_2     C     0.4549     0.4808     0.091
A_2     C     0.3667     0.8376     0.014
A_1     C     0.9461     0.0894     0.1141
A_0     C     0.6674     0.7775     0.5783
A_1     C     0.2244     0.6282     0.3586
A_2     C     0.3618     0.3472     0.5128
A_3     C     0.3959     0.6231     0.2354
A_3     C     0.007     0.937     0.0652
A_1     C     0.0103     0.22     0.6609
A_0     C     0.6057     0.6436     0.9457
A_3     C     0.855     0.8378     0.2379
A_2     C     0.3539     0.2227     0.4686
A_1     C     0.0535     0.6287     0.4166
A_1     C     0.3839     0.9287     0.6596
A_0     C     0.322     0.0967     0.4098
A_1     C     0.1052     0.344     0.4611
A_3     C     0.6064     0.2753     0.6752
A_0     C     0.7929     0.3791     0.7984
A_1     C     0.8984     0.8776     0.0337
A_0     C     0.5068     0.2338     0.9012
A_1     C     0.7987     0.4433     0.9336
A_3     C     0.7867     0.2108     0.5592
A_3     C     0.7955     0.0681     0.6443
A_1     C     0.3933     0.636     0.6188
A_0     C     0.1352     0.9743     0.477
A_0     C     0.8671     0.568     0.2464
A_1     C     0.9698     0.5977     0.1041
A_1     C     0.6212     0.568     0.2593
A_0     C     0.3006     0.3741     0.7507
A_3     C     0.768     0.0562     0.9726
A_2     C     0.3943     0.3868     0.2111
A_2     C     0.9649     0.4518     0.1255
A_3     C     0.5145     0.7865     0.928
A_1     C     0.5025     0.7862     0.5088
A_0     C     0.614     0.9268     0.1929
A_2     C     0.5711     0.7233     0.8872
A_1     C     0.9047     0.7696     0.8757
A_2     C     0.0636     0.6697     0.8272
A_1     C     0.8985     0.9858     0.8901
A_1     C     0.4125     0.0869     0.0602
A_1     C     0.3156     0.2505     0.9948
A_0     C     0.1335     0.104     0.8993
A_3     C     0.2006     0.843     0.8893
A_0     C     0.6497     0.5736     0.6461
A_0     C     0.7318     0.064     0.2658
A_1     C     0.3624     0.7453     0.0785
A_0     C     0.241     0.7165     0.6268
A_1     C     0.6098     0.8705     0.4937
A_0     C     0.0826     0.0202     0.2628
A_2     C     0.4113     0.8213     0.3486
A_3     C     0.1072     0.1799     0.3473
A_2     C     0.9814     0.2364     0.247
A_0     C     0.7508     0.5562     0.2326
A_2     C     0.8707     0.5394     0.4743
A_1     C     0.6813     0.5723     0.2563
A_1     C     0.7449     0.184     0.1038
A_2     C     0.3236     0.3304     0.7668
A_2     C     0.0915     0.8784     0.5388
A_1     C     0.6349     0.3682     0.9303
A_1     C     0.7347     0.2794     0.7656
A_3     C     0.2221     0.9065     0.3913
A_2     C     0.3692     0.7073     0.7678
A_2     C     0.1615     0.5289     0.5917
A_0     C     0.7563     0.5446     0.1508
A_2     C     0.0804     0.9562     0.0278
A_2     C     0.9954     0.2866     0.8393
A_2     C     0.0551     0.3069     0.221
A_3     C     0.1203     0.184     0.0646
A_3     C     0.9198     0.4583     0.2581
A_2     C     0.2264     0.1652     0.6125
A_0     C     0.7791     0.8838     0.3823
A_2     C     0.3799     0.7257     0.6366
A_3     C     0.2902     0.0908     0.09
A_3     C     0.047     0.2619     0.6622
A_0     C     0.0952     0.6866     0.1801
A_3     C     0.3198     0.1693     0.245
A_2     C     0.7948     0.8139     0.8737
A_1     C     0.1665     0.9677     0.549
A_2     C     0.1834     0.6992     0.9793
A_3     C     0.8384     0.0061     0.0031
A_3     C     0.4629     0.9484     0.2297
A_2     C     0.7429     0.7326     0.0751
A_3     C     0.9184     0.6609     0.6214
A_0     C     0.5326     0.9218     0.9942
A_3     C     0.0577     0.4005     0.8587
A_3     C     0.4615     0.9624     0.7559
A_1     C     0.606     0.333     0.8378
A_0     C     0.7157     0.2279     0.04
A_3     C     0.135     0.7372     0.0073
A_1     C     0.5363     0.2887     0.7741
A_0     C     0.6557     0.843     0.6651
A_2     C     0.0659     0.5191     0.2518
A_1     C     0.5579     0.1063     0.9019
A_3     C     0.8529     0.0402     0.3362
A_0     C     0.8974     0.4207     0.3859
A_2     C     0.4014     0.7015     0.3777
A_3     C     0.5841     0.9185     0.1791
A_3     C     0.8608     0.0816     0.7906
A_1     C     0.6586     0.4877     0.7165
A_3     C     0.3687     0.01     0.9106
A_2     C     0.386     0.9432     0.0191
A_3     C     0.9764     0.7302     0.8219
A_3     C     0.1146     0.0737     0.8256
A_3     C     0.4808     0.334     0.2653
A_1     C     0.5421     0.228     0.204
A_1     C     0.0818     0.488     0.5905
A_0     C     0.1079     0.936     0.6263
A_0     C     0.4562     0.7381     0.6687
A_2     C     0.4089     0.5732     0.95
A_0     C     0.0006     0.2418     0.3832
A_3     C     0.906     0.5027     0.9336
A_1     C     0.5189     0.3526     0.7971
A_3     C     0.2836     0.0363     0.8915
A_2     C     0.0338     0.6769     0.6272
A_1     C     0.8785     0.306     0.8458
A_3     C     0.6881     0.4217     0.0092
A_1     C     0.5755     0.0571     0.3458
A_2     C     0.769     0.6233     0.8418
A_2     C     0.8946     0.6275     0.8921
A_1     C     0.8118     0.2073     0.4541
A_3     C     0.1556     0.6774     0.713
A_0     C     0.6355     0.8186     0.4329
A_1     C     0.789     0.5648     0.6107
A_1     C     0.3041     0.1288     0.0453
A_1     C     0.7355     0.0903     0.1073
A_0     C     0.8273     0.9789     0.8856
A_1     C     0.5108     0.0009     0.6041
A_0     C     0.5075     0.1411     0.1293
A_0     C     0.1129     0.3226     0.8619
A_1     C     0.9542     0.5316     0.0662
A_3     C     0.7828     0.2674     0.9178
A_0     C     0.448     0.3356     0.0086
A_1     C     0.2249     0.0083     0.1417
A_0     C     0.6799     0.54     0.8251
A_2     C     0.0436     0.9664     0.4809
A_1     C     0.0031     0.6141     0.4685
A_1     C     0.7449     0.163     0.5476
A_1     C     0.0972     0.1231     0.0392
A_3     C     0.747     0.472     0.0723
A_2     C     0.048     0.5313     0.3163
A_0     C     0.1408     0.5036     0.1493
A_2     C     0.4128     0.4765     0.8856
A_1     C     0.3002     0.2969     0.265
A_2     C     0.7498     0.7971     0.9895
A_0     C     0.6305     0.7114     0.673
A_3     C     0.2447     0.6031     0.5801
A_1     C     0.3432     0.3849     0.5619
A_2     C     0.9396     0.5533     0.0143
A_1     C     0.5463     0.6454     0.4859
A_3     C     0.6645     0.4949     0.0318
A_0     C     0.0568     0.5574     0.1053
A_0     C     0.4497     0.8062     0.9942
A_0     C     0.738     0.4389     0.3424
A_1     C     0.0663     0.0736     0.3223
A_2     C     0.6216     0.2586     0.4389
A_2     C     0.8821     0.625     0.3424
A_0     C     0.9415     0.895     0.7295
A_2     C     0.141     0.4383     0.9143
A_0     C     0.63     0.9844     0.6083
A_3     C     0.9328     0.282     0.7805
A_0     C     0.9411     0.1791     0.9511
A_1     C     0.5324     0.5921     0.2209
A_2     C     0.2734     0.9218     0.1535
A_1     C     0.6639     0.7473     0.3539
A_1     C     0.0937     0.2694     0.2381
A_1     C     0.0451     0.1332     0.4929
A_3     C     0.9238     0.8235     0.6294
A_3     C     0.8358     0.7737     0.5012
A_2     C     0.2757     0.5027     0.2417
A_3     C     0.8487     0.1182     0.984
A_1     C     0.4823     0.9485     0.3183
A_2     C     0.7438     0.843     0.5878
A_1     C     0.556     0.6137     0.4181
A_0     C     0.7696     0.7944     0.4388
A_2     C     0.5118     0.1624     0.2172
A_3     C     0.7223     0.3662     0.339
A_1     C     0.1193     0.6885     0.4544
A_2     C     0.6768     0.5665     0.2941
A_2     C     0.8509     0.4945     0.7039
A_0     C     0.8393     0.2445     0.5821
A_1     C     0.8842     0.9898     0.9632
A_3     C     0.418     0.3474     0.7815
A_0     C     0.0138     0.3916     0.7263
A_3     C     0.2841     0.7648     0.4438
A_2     C     0.4046     0.5076     0.5715
A_2     C     0.106     0.6956     0.9226
A_0     C     0.3462     0.3051     0.796
A_0     C     0.505     0.9946     0.5842
A_2     C     0.7698     0.9891     0.3014
A_0     C     0.3106     0.6546     0.4343
A_0     C     0.6968     0.8003     0.3976
A_3     C     0.1173     0.7253     0.1789
A_2     C     0.5809     0.0401     0.7169
A_3     C     0.0992     0.0591     0.6122
A_0     C     0.6819     0.4022     0.6425
A_3     C     0.9206     0.0076     0.3006
A_0     C     0.5235     0.9201     0.2516
A_0     C     0.3448     0.2873     0.8173
A_1     C     0.7504     0.9697     0.916
A_2     C     0.1959     0.3223     0.4511
A_1     C     0.2218     0.1016     0.7805
A_2     C     0.4219     0.6866     0.417
A_2     C     0.3552     0.2282     0.2181
A_0     C     0.1303     0.754     0.5316
A_1     C     0.8255     0.4772     0.1002
A_0     C     0.7196     0.2454     0.197
A_2     C     0.5146     0.522     0.7567
A_2     C     0.0385     0.0768     0.8881
A_2     C     0.2069     0.7569     0.0351
A_3     C     0.8592     0.2813     0.4906
A_0     C     0.9685     0.428     0.3901
A_2     C     0.7066     0.0965     0.2838
A_3     C     0.9525     0.4556     0.7514
A_2     C     0.737     0.047     0.7666
A_2     C     0.6576     0.5928     0.4785
A_2     C     0.852     0.519     0.492
A_1     C     0.2743     0.8506     0.3789
A_0     C     0.5898     0.098     0.6025
A_1     C     0.5979     0.8451     0.8705
A_2     C     0.5089     0.1511     0.0904
A_1     C     0.2822     0.5423     0.5748
A_1     C     0.2101     0.011     0.1268
A_3     C     0.037     0.9622     0.7197
A_0     C     0.1657     0.6715     0.6344
A_2     C     0.2413     0.8932     0.9172
A_0     C     0.4463     0.6144     0.2627
A_2     C     0.0129     0.2546     0.9917
A_0     C     0.2352     0.8623     0.3599
A_0     C     0.9001     0.9846     0.2868
A_2     C     0.4105     0.3994     0.5038
A_3     C     0.6193     0.9381     0.3023
A_3     C     0.5752     0.1335     0.9947
A_0     C     0.2211     0.2708     0.7354
A_0     C     0.7075     0.9401     0.9667
A_0     C     0.2019     0.598     0.1513
A_3     C     0.6327     0.1352     0.6171
A_1     C     0.129     0.9811     0.3489
A_3     C     0.3     0.1874     0.9734
A_1     C     0.2203     0.9728     0.0312
A_3     C     0.7327     0.0323     0.8648
A_3     C     0.3116     0.3731     0.8904
A_3     C     0.2248     0.4137     0.6699
A_3     C     0.552     0.5935     0.5644
A_3     C     0.4077     0.1026     0.275
A_2     C     0.2311     0.3227     0.7563
A_3     C     0.8668     0.9476     0.0644
A_0     C     0.7592     0.7919     0.9237
A_0     C     0.7013     0.2404     0.4697
A_0     C     0.7037     0.3622     0.6352
A_3     C     0.0705     0.7342     0.8764
A_1     C     0.501     0.5261     0.9543
A_2     C     0.9916     0.0068     0.4415
A_0     C     0.0786     0.8154     0.45
A_0     C     0.512     0.0833     0.3173
A_2     C     0.7854     0.183     0.6173
A_1     C     0.9979     0.0993     0.3023
A_3     C     0.7403     0.2508     0.5447
A_0     C     0.6906     0.5158     0.806
A_2     C     0.7085     0.7908     0.6583
A_0     C     0.515     0.8061     0.0938
A_3     C     0.2682     0.1899     0.0849
A_0     C     0.6538     0.6982     0.7878
A_1     C     0.2255     0.329     0.6288
A_2     C     0.8934     0.7216     0.0703
A_3     C     0.9916     0.8664     0.9185
A_2     C     0.4528     0.0253     0.6297
A_3     C     0.2964     0.0959     0.9354
A_1     C     0.1082     0.4516     0.5423
A_2     C     0.2264     0.0018     0.9909
A_2     C     0.3621     0.1204     0.7823
A_0     C     0.8018     0.0301     0.8585
A_1     C     0.1065     0.1351     0.8771
A_3     C     0.3195     0.6595     0.622
A_2     C     0.1853     0.0174     0.4585
A_0     C     0.6895     0.2711     0.7821
A_0     C     0.9013     0.2316     0.7263
A_3     C     0.7851     0.9639     0.7334
A_0     C     0.21     0.8631     0.2472
A_2     C     0.1755     0.1275     0.3301
A_3     C     0.2976     0.2646     0.2902
A_3     C     0.5391     0.0736     0.9494
A_2     C     0.7033     0.4133     0.8999
A_3     C     0.7972     0.027     0.6128
A_2     C     0.8638     0.689     0.8998
A_0     C     0.5986     0.6614     0.7324
A_1     C     0.2222     0.3607     0.9609
A_2     C     0.5466     0.8445     0.5826
A_0     C     0.221     0.3275     0.9217
A_2     C     0.9692     0.3675     0.819
A_2     C     0.7474     0.7473     0.2921
A_2     C     0.0368     0.8712     0.7077
A_2     C     0.9469     0.7335     0.8797
A_3     C     0.167     0.8211     0.8166
A_0     C     0.1478     0.8287     0.7768
A_2     C     0.7914     0.7027     0.6546
A_0     C     0.4472     0.1275     0.3364
A_1     C     0.2117     0.4089     0.1494
A_2     C     0.579     0.893     0.355
A_3     C     0.1312     0.6582     0.9347
A_1     C     0.3187     0.8026     0.8911
A_0     C     0.0901     0.4046     0.4194
A_0     C     0.1386     0.23     0.7039
A_2     C     0.3711     0.1067     0.4918
A_1     C     0.1865     0.649     0.6191
A_3     C     0.0045     0.4925     0.4441
A_3     C     0.3668     0.9564     0.525
A_1     C     0.0726     0.1826     0.9446
A_3     C     0.7652     0.2815     0.0391
A_2     C     0.7279     0.0829     0.6299
A_3     C     0.8894     0.8358     0.797
A_2     C     0.6077     0.3107     0.3874
A_1     C     0.1734     0.5914     0.216
A_1     C     0.6437     0.1699     0.8978
A_1     C     0.4127     0.5807     0.4772
A_1     C     0.5618     0.0661     0.4271
A_2     C     0.0841     0.775     0.8181
A_1     C     0.1755     0.9949     0.2582
A_3     C     0.6048     0.1883     0.2526
A_2     C     0.2205     0.1824     0.5423
A_1     C     0.8561     0.5205     0.0268
A_0     C     0.8925     0.6988     0.2719
A_3     C     0.3262     0.79     0.4935
A_0     C     0.0865     0.9039     0.3221
A_1     C     0.8413     0.8056     0.2574
A_0     C     0.496     0.4673     0.6836
A_0     C     0.27     0.2275     0.4893
A_0     C     0.4505     0.1667     0.9348
A_0     C     0.1984     0.6715     0.7073
A_1     C     0.3951     0.3228     0.944
A_2     C     0.1483     0.5896     0.6671
A_1     C     0.1211     0.4821     0.1723
A_3     C     0.3593     0.9447     0.2919
A_2     C     0.1382     0.88     0.6238
A_2     C     0.5775     0.8934     0.6023
A_3     C     0.3876     0.0459     0.9913
A_1     C     0.7747     0.6205     0.1374
A_1     C     0.7158     0.4928     0.0654
A_3     C     0.6651     0.9682     0.4842
A_0     C     0.7782     0.977     0.77
A_3     C     0.315     0.0067     0.2306
A_1     C     0.9186     0.3529     0.8483
A_2     C     0.2295     0.0296     0.7762
A_1     C     0.5073     0.9468     0.2714
A_1     C     0.9113     0.6206     0.393
A_1     C     0.1239     0.6322     0.5424
A_3     C     0.6402     0.0151     0.5661
A_3     C     0.5384     0.6197     0.7965
A_0     C     0.9423     0.6635     0.4126
A_2     C     0.8523     0.1701     0.9208
A_1     C     0.1244     0.6234     0.005
A_3     C     0.2731     0.3651     0.1062
A_2     C     0.7253     0.5165     0.6523
A_0     C     0.9617     0.2429     0.1852
A_0     C     0.3665     0.4545     0.8389
A_1     C     0.2161     0.164     0.2904
A_2     C     0.232     0.1352     0.6744
A_3     C     0.3767     0.5476     0.2222
A_1     C     0.7358     0.7768     0.1235
A_2     C     0.6855     0.9445     0.1902
A_3     C     0.2424     0.2605     0.6401
A_2     C     0.3663     0.0426     0.7372
A_0     C     0.7722     0.7758     0.4244
A_0     C     0.9499     0.7844     0.4699
A_3     C     0.7592     0.8301     0.7497
A_2     C     0.1493     0.7912     0.1046
A_0     C     0.7958     0.1621     0.4277
A_2     C     0.9504     0.3414     0.8817
A_0     C     0.3679     0.575     0.3918
A_3     C     0.9116     0.9304     0.7989
A_0     C     0.0345     0.3636     0.5561
A_0     C     0.4865     0.0909     0.1899
A_1     C     0.7887     0.7271     0.1415
A_3     C     0.342     0.5391     0.7601
A_0     C     0.2903     0.5202     0.9227
A_3     C     0.2496     0.3239     0.9323
A_2     C     0.9629     0.4472     0.9726
A_0     C     0.803     0.4793     0.7266
A_1     C     0.4415     0.8911     0.3113
A_0     C     0.2946     0.0498     0.5423
A_0     C     0.899     0.2018     0.9334
A_2     C     0.068     0.1272     0.0568
A_2     C     0.3178     0.9928     0.4761
A_3     C     0.6697     0.447     0.0378
A_3     C     0.5094     0.6749     0.0249
A_0     C     0.6534     0.2947     0.8887
A_1     C     0.5548     0.5067     0.4149
A_3     C     0.5192     0.5898     0.3467
A_0     C     0.364     0.5366     0.6807
A_1     C     0.7916     0.4397     0.3243
A_1     C     0.9421     0.8256     0.7789
A_3     C     0.4952     0.9869     0.0007
A_3     C     0.3113     0.3526     0.9848
A_1     C     0.3646     0.5004     0.926
A_0     C     0.2395     0.2787     0.8305
A_1     C     0.3405     0.4755     0.3048
A_2     C     0.3107     0.952     0.9731
A_3     C     0.5633     0.8682     0.43
A_2     C     0.2175     0.6327     0.7999
A_1     C     0.7154     0.1806     0.0295
A_2     C     0.8231     0.4293     0.9596
A_2     C     0.4265     0.0091     0.9824
A_2     C     0.8722     0.8773     0.503
A_0     C     0.0462     0.0959     0.1857
A_1     C     0.4333     0.2562     0.4916
A_2     C     0.8117     0.7319     0.5139
A_1     C     0.385     0.6247     0.253
A_1     C     0.942     0.2188     0.388
A_2     C     0.3678     0.1182     0.1511
A_0     C     0.9369     0.6554     0.0703
A_3     C     0.8123     0.14     0.4613
A_0     C     0.1079     0.7298     0.4434
A_2     C     0.7058     0.7799     0.2059
A_1     C     0.4368     0.4489     0.0942
A_1     C     0.3243     0.8357     0.4427
A_3     C     0.6566     0.3908     0.9832
A_1     C     0.4934     0.3135     0.7101
A_3     C     0.9863     0.8698     0.4651
A_1     C     0.0318     0.0605     0.5323
A_3     C     0.4124     0.3365     0.9862
A_2     C     0.6907     0.4234     0.3513
A_1     C     0.3313     0.4994     0.9172
A_1     C     0.0406     0.6534     0.7237
A_2     C     0.448     0.3254     0.8541
A_2     C     0.3056     0.2061     0.2779
A_0     C     0.544     0.9141     0.693
A_0     C     0.7957     0.3243     0.6284
A_1     C     0.1975     0.2656     0.1773
A_1     C     0.5695     0.9458     0.063
A_3     C     0.9173     0.0799     0.6589
A_2     C     0.8242     0.5205     0.0854
A_2     C     0.0833     0.7321     0.2473
A_2     C     0.648     0.0655     0.7853
A_3     C     0.7507     0.3805     0.3723
A_2     C     0.3615     0.4882     0.7642
A_1     C     0.7737     0.074     0.2862
A_2     C     0.3892     0.9255     0.1572
A_1     C     0.2667     0.9349     0.4951
A_1     C     0.4691     0.8774     0.6068
A_0     C     0.9697     0.3052     0.6783
A_3     C     0.6202     0.2013     0.8956
A_0     C     0.7075     0.0176     0.7965
A_3     C     0.7317     0.4288     0.3584
A_1     C     0.0845     0.9101     0.773
A_0     C     0.6     0.7923     0.8459
A_1     C     0.3749     0.9236     0.8429
A_0     C     0.7573     0.8773     0.6722
A_3     C     0.9404     0.1775     0.2353
A_2     C     0.7074     0.3315     0.9276
A_2     C     0.0781     0.2978     0.5731
A_3     C     0.613     0.0849     0.9879
A_1     C     0.2319     0.5844     0.644
A_1     C     0.1773     0.4183     0.2885
A_3     C     0.166     0.5603     0.8165
A_0     C     0.2267     0.5831     0.3062
A_3     C     0.0691     0.7986     0.7684
A_3     C     0.5799     0.327     0.1488
A_3     C     0.8959     0.1727     0.5673
A_3     C     0.7135     0.1924     0.8438
A_1     C     0.654     0.7835     0.9689
A_3     C     0.172     0.2176     0.868
A_3     C     0.1783     0.3753     0.2452
A_1     C     0.3432     0.3942     0.6704
A_2     C     0.6447     0.8866     0.2856
A_0     C     0.0274     0.1307     0.3933
A_1     C     0.9029     0.5825     0.2021
A_0     C     0.7336     0.5655     0.9975
A_1     C     0.0334     0.3053     0.5718
A_3     C     0.2049     0.8253     0.5187
A_3     C     0.71     0.845     0.6197
A_3     C     0.0404     0.7503     0.5572
A_1     C     0.6733     0.0637     0.4818
A_0     C     0.5807     0.2141     0.1559
A_0     C     0.8718     0.0013     0.8027
A_3     C     0.3935     0.2361     0.886
A_3     C     0.2647     0.3866     0.7282
A_3     C     0.5661     0.3947     0.7574
A_2     C     0.6484     0.4126     0.7034
A_0     C     0.421     0.6713     0.8045
A_1     C     0.3078     0.6371     0.5922
A_2     C     0.9086     0.5563     0.8246
A_3     C     0.5913     0.2297     0.7356
A_1     C     0.3028     0.7926     0.3668
A_0     C     0.5736     0.5135     0.0487
A_0     C     0.3302     0.5519     0.655
A_0     C     0.1671     0.2102     0.4662
A_1     C     0.9943     0.2622     0.9103
A_2     C     0.3251     0.8849     0.4
A_3     C     0.6959     0.7088     0.9891
A_2     C     0.4659     0.1574     0.8703
A_3     C     0.715     0.6233     0.5239
A_0     C     0.6131     0.8125     0.1608
A_3     C     0.0296     0.2635     0.567
A_2     C     0.3025     0.5836     0.4148
A_2     C     0.9847     0.1605     0.7013
A_2     C     0.306     0.8913     0.3878
A_3     C     0.9515     0.7101     0.0018
A_1     C     0.5256     0.6018     0.9794
A_2     C     0.4046     0.4166     0.5125
A_3     C     0.4256     0.3899     0.1429
A_3     C     0.0818     0.5657     0.2943
A_1     C     0.5633     0.1692     0.9967
A_1     C     0.3316     0.8849     0.3739
A_3     C     0.0081     0.8477     0.7524
A_3     C     0.3094     0.0538     0.1802
A_2     C     0.4844     0.967     0.8111
A_3     C     0.8288     0.5671     0.5356
A_3     C     0.6615     0.1484     0.3131
A_2     C     0.179     0.2317     0.8125
A_1     C     0.3833     0.7808     0.3627
A_2     C     0.6096     0.5456     0.2092
A_3     C     0.6672     0.3911     0.171
A_2     C     0.432     0.5308     0.1462
A_0     C     0.1168     0.0659     0.4862
A_3     C     0.7332     0.3351     0.2264
A_2     C     0.3306     0.7279     0.7355
A_1     C     0.1     0.1219     0.4242
A_1     C     0.6904     0.0168     0.6181
A_0     C     0.3389     0.1372     0.246
A_1     C     0.8696     0.0922     0.8117
A_3     C     0.2289     0.4359     0.6556
A_0     C     0.6447     0.3464     0.367
A_3     C     0.454     0.7749     0.5282
A_1     C     0.9282     0.5703     0.8823
A_2     C     0.5687     0.6256     0.8951
A_2     C     0.7083     0.0203     0.7472
A_3     C     0.9173     0.541     0.5587
A_1     C     0.3819     0.1111     0.7581
A_0     C     0.6131     0.7507     0.7266
A_2     C     0.9267     0.3568     0.3153
A_3     C     0.2445     0.7879     0.1347
A_1     C     0.4721     0.3328     0.9758
A_2     C     0.8581     0.7029     0.1048
A_1     C     0.1914     0.5584     0.4651
A_0     C     0.0122     0.9625     0.5092
A_2     C     0.729     0.2047     0.54
A_0     C     0.5059     0.7767     0.6393
A_0     C     0.4786     0.4759     0.3361
A_1     C     0.7333     0.5367     0.1064
A_2     C     0.0255     0.0059     0.7756
A_1     C     0.4189     0.3176     0.3793
A_2     C     0.7863     0.8349     0.7828
A_2     C     0.6279     0.1575     0.2337
A_0     C     0.7263     0.7927     0.3571
A_2     C     0.0768     0.5262     0.5102
A_0     C     0.8807     0.2075     0.6862
A_1     C     0.8652     0.2344     0.431
A_2     C     0.3654     0.1674     0.9163
A_3     C     0.4633     0.1809     0.8303
A_2     C     0.135     0.178     0.6575
A_0     C     0.2319     0.0442     0.1035
A_2     C     0.6674     0.7936     0.2878
A_3     C     0.3108     0.8948     0.1513
A_2     C     0.5743     0.8843     0.7288
A_1     C     0.1865     0.1118     0.2324
A_3     C     0.2138     0.0173     0.449
A_3     C     0.2566     0.4126     0.1556
A_3     C     0.5383     0.8657     0.542
A_3     C     0.3517     0.9753     0.1037
A_2     C     0.207     0.1285     0.892
A_1     C     0.6323     0.344     0.0236
A_2     C     0.683     0.1271     0.6618
A_3     C     0.4466     0.2229     0.9483
A_1     C     0.4539     0.9183     0.5267
A_1     C     0.1758     0.5751     0.9536
A_0     C     0.3483     0.8331     0.3768
A_0     C     0.4684     0.779     0.9378
A_2     C     0.061     0.3346     0.9077
A_1     C     0.2213     0.7447     0.9956
A_0     C     0.0773     0.1697     0.8286
A_1     C     0.7851     0.6312     0.1523
A_1     C     0.9842     0.356     0.419
A_1     C     0.3927     0.9867     0.9718
A_2     C     0.0907     0.2648     0.7544
A_0     C     0.9669     0.6586     0.4719
A_3     C     0.1581     0.2313     0.1847
A_2     C     0.9845     0.0293     0.182
A_2     C     0.8533     0.5597     0.0414
A_0     C     0.3298     0.8085     0.8927
A_2     C     0.0168     0.0217     0.4105
A_1     C     0.5507     0.5855     0.4783
A_3     C     0.4542     0.9864     0.5308
A_3     C     0.5387     0.1241     0.7635
A_2     C     0.296     0.0498     0.9263
A_1     C     0.6775     0.5053     0.4509
A_0     C     0.0357     0.1493     0.8699
A_2     C     0.0791     0.8317     0.7979
A_3     C     0.916     0.08     0.0937
A_3     C     0.4637     0.081     0.7969
A_1     C     0.3382     0.2914     0.649
A_1     C     0.0791     0.7311     0.0266
A_3     C     0.5939     0.2242     0.746
A_0     C     0.6575     0.1876     0.6396
A_2     C     0.2066     0.2286     0.8478
A_1     C     0.7898     0.0752     0.0017
A_1     C     0.4544     0.9983     0.0424
A_1     C     0.5241     0.2804     0.6989
A_3     C     0.6658     0.4659     0.7502
A_2     C     0.1852     0.7113     0.9839
A_2     C     0.8699     0.0993     0.8919
A_3     C     0.4071     0.2433     0.9481
A_2     C     0.2306     0.5425     0.2801
A_0     C     0.4795     0.8407     0.259
A_0     C     0.5284     0.6242     0.9664
A_3     C     0.5998     0.0941     0.0522
A_3     C     0.41     0.9081     0.2577
A_3     C     0.9268     0.1459     0.3914
A_2     C     0.964     0.5795     0.2912
A_2     C     0.6595     0.0573     0.337
A_3     C     0.1218     0.9534     0.8102
A_0     C     0.3483     0.0837     0.1917
A_3     C     0.8941     0.7403     0.6061
A_1     C     0.4466     0.3959     0.2122
A_1     C     0.67     0.9741     0.4461
A_3     C     0.8463     0.9015     0.6414
A_3     C     0.2126     0.5189     0.9612
A_1     C     0.698     0.006     0.7978
