MAT-16

loop_
_symmetry_equiv_pos_as_xyz
  x,y,z
_cell_length_a          25.9447
_cell_length_b          18.3409
_cell_length_c          40.0731
_cell_angle_alpha       90.0000
_cell_angle_beta        90.0000
_cell_angle_gamma       90.0000
loop_
_atom_site_label
_atom_site_type_symbol
_atom_site_fract_x
_atom_site_fract_y
_atom_site_fract_z
A_0     C     0.1086     0.1193     0.2246
A_3     C     0.1593     0.3484     0.0511
A_0     C     0.3389     0.8623     0.0596
A_1     C     0.533     0.8044     0.8401
A_1     C     0.4203     0.1771     0.8291
A_1     C     0.4936     0.7974     0.3336
A_3     C     0.45     0.0236     0.6223
A_0     C     0.6297     0.8879     0.8602
A_3     C     0.0317     0.4288     0.3593
A_2     C     0.1232     0.0129     0.6722
A_1     C     0.2015     0.5269     0.201
A_0     C     0.5115     0.7507     0.806
A_1     C     0.2542     0.3278     0.2913
A_0     C     0.7355     0.1048     0.4744
A_1     C     0.8969     0.0453     0.7075
A_1     C     0.6166     0.6491     0.1156
A_3     C     0.3374     0.5984     0.2257
A_0     C     0.5267     0.2875     0.76
A_2     C     0.4946     0.6427     0.2133
A_3     C     0.7199     0.7061     0.7458
A_3     C     0.9822     0.4428     0.23
A_0     C     0.3166     0.9045     0.7652
A_0     C     0.2348     0.0078     0.5799
A_2     C     0.2587     0.383     0.9431
A_3     C     0.3474     0.1002     0.3968
A_0     C     0.5724     0.743     0.1253
A_3     C     0.0367     0.7622     0.0289
A_2     C     0.3151     0.9584     0.8187
A_2     C     0.5954     0.1588     0.8092
A_2     C     0.6167     0.6742     0.5982
A_0     C     0.9656     0.9306     0.28
A_1     C     0.0994     0.0869     0.6773
A_2     C     0.0736     0.3807     0.028
A_3     C     0.0124     0.0973     0.0269
A_0     C     0.0673     0.5896     0.6713
A_3     C     0.5395     0.3637     0.2591
A_1     C     0.3046     0.7037     0.718
A_0     C     0.2622     0.7817     0.4191
A_0     C     0.9566     0.6436     0.5383
A_2     C     0.4712     0.0454     0.093
A_3     C     0.3332     0.1227     0.6633
A_3     C     0.6889     0.8998     0.4977
A_2     C     0.2371     0.1352     0.3623
A_3     C     0.8152     0.6665     0.6066
A_0     C     0.6562     0.9663     0.0607
A_2     C     0.2045     0.8445     0.0716
A_0     C     0.5854     0.2316     0.0528
A_2     C     0.1613     0.2029     0.0789
A_1     C     0.1583     0.4177     0.9166
A_0     C     0.7738     0.3149     0.9632
A_1     C     0.3217     0.0101     0.0357
A_2     C     0.0376     0.8477     0.0959
A_2     C     0.2551     0.1332     0.7207
A_0     C     0.1927     0.3973     0.9573
A_3     C     0.5799     0.1626     0.8804
A_1     C     0.3843     0.2066     0.232
A_0     C     0.5021     0.8043     0.4102
A_1     C     0.9118     0.5451     0.0565
A_3     C     0.0987     0.97     0.9265
A_3     C     0.6249     0.9123     0.1915
A_1     C     0.3426     0.4977     0.3416
A_0     C     0.7905     0.7676     0.6501
A_0     C     0.9523     0.8099     0.4763
A_3     C     0.8026     0.5707     0.3206
A_1     C     0.1004     0.8806     0.3998
A_1     C     0.5228     0.8193     0.3775
A_3     C     0.2413     0.3977     0.4335
A_0     C     0.0704     0.9867     0.9609
A_3     C     0.7265     0.1407     0.1749
A_2     C     0.9208     0.0849     0.6421
A_0     C     0.2696     0.0085     0.5422
A_0     C     0.7554     0.8802     0.5175
A_0     C     0.1196     0.9112     0.3228
A_3     C     0.9078     0.3315     0.4307
A_1     C     0.7396     0.7445     0.2023
A_3     C     0.278     0.0962     0.0261
A_1     C     0.0048     0.3897     0.121
A_2     C     0.2525     0.4672     0.3713
A_1     C     0.4578     0.9778     0.0856
A_0     C     0.405     0.6997     0.3024
A_0     C     0.8973     0.0378     0.4996
A_2     C     0.0848     0.1684     0.5723
A_3     C     0.871     0.9778     0.715
A_0     C     0.8904     0.8922     0.7226
A_1     C     0.0428     0.281     0.9202
A_3     C     0.3462     0.3561     0.6168
A_3     C     0.8505     0.1029     0.14
A_1     C     0.4206     0.9654     0.4286
A_0     C     0.1826     0.7842     0.2923
A_0     C     0.3629     0.8323     0.1598
A_1     C     0.7911     0.9388     0.7817
A_3     C     0.1881     0.0237     0.7835
A_1     C     0.3574     0.5808     0.4986
A_0     C     0.6016     0.3195     0.5603
A_3     C     0.6167     0.3215     0.7348
A_2     C     0.9718     0.3843     0.845
A_1     C     0.9296     0.7681     0.2138
A_0     C     0.071     0.8971     0.3055
A_0     C     0.5623     0.691     0.7597
A_1     C     0.8773     0.9679     0.7041
A_3     C     0.4934     0.2633     0.8715
A_0     C     0.2504     0.0413     0.0345
A_1     C     0.1677     0.175     0.6719
A_1     C     0.4634     0.7089     0.9702
A_2     C     0.9269     0.1924     0.7088
A_1     C     0.9908     0.9784     0.2623
A_3     C     0.1627     0.7602     0.5105
A_1     C     0.2818     0.8402     0.4473
A_2     C     0.5603     0.5613     0.868
A_1     C     0.9578     0.0832     0.4184
A_0     C     0.2463     0.6492     0.2917
A_0     C     0.5353     0.4035     0.682
A_2     C     0.5458     0.2997     0.4329
A_2     C     0.424     0.8498     0.6347
A_2     C     0.9814     0.1793     0.9136
A_1     C     0.6213     0.3131     0.4311
A_0     C     0.455     0.8905     0.9033
A_1     C     0.5346     0.5345     0.5391
A_0     C     0.6286     0.3277     0.4164
A_1     C     0.7534     0.533     0.2065
A_2     C     0.1079     0.0358     0.969
A_0     C     0.0858     0.8173     0.5006
A_2     C     0.1526     0.8882     0.8273
A_1     C     0.5713     0.1935     0.9994
A_0     C     0.6357     0.588     0.5821
A_1     C     0.4574     0.2523     0.1157
A_2     C     0.3567     0.7081     0.1753
A_3     C     0.2573     0.0793     0.5272
A_2     C     0.296     0.3368     0.9528
A_2     C     0.5919     0.9383     0.8723
A_1     C     0.0972     0.9617     0.7224
A_2     C     0.7064     0.7849     0.0536
A_2     C     0.6608     0.8678     0.0972
A_3     C     0.939     0.442     0.0446
A_0     C     0.5955     0.6053     0.7751
A_3     C     0.7763     0.2315     0.4705
A_3     C     0.5001     0.2477     0.8739
A_2     C     0.267     0.3248     0.6441
A_0     C     0.0065     0.3336     0.3733
A_0     C     0.53     0.6258     0.5493
A_0     C     0.2667     0.6951     0.2166
A_1     C     0.3239     0.4959     0.4402
A_0     C     0.7482     0.3703     0.0385
A_1     C     0.5131     0.7155     0.3511
A_1     C     0.5013     0.2316     0.846
A_2     C     0.0569     0.6456     0.5846
A_2     C     0.9454     0.4224     0.1994
A_1     C     0.2268     0.3034     0.0432
A_0     C     0.2164     0.4299     0.3438
A_2     C     0.527     0.5746     0.8983
A_1     C     0.689     0.2229     0.1078
A_2     C     0.5781     0.9984     0.1778
A_1     C     0.6299     0.7532     0.4747
A_2     C     0.3377     0.708     0.633
A_0     C     0.1172     0.6148     0.4048
A_3     C     0.4648     0.5306     0.7463
A_3     C     0.4901     0.032     0.0748
A_1     C     0.2515     0.2957     0.3428
A_2     C     0.0752     0.4537     0.6146
A_3     C     0.8698     0.9265     0.8463
A_2     C     0.1783     0.0084     0.9218
A_2     C     0.0758     0.1333     0.9194
A_2     C     0.2196     0.1487     0.7887
A_0     C     0.3098     0.3556     0.7306
A_0     C     0.2087     0.6634     0.2643
A_0     C     0.4551     0.0062     0.2303
A_2     C     0.6139     0.8462     0.4279
A_3     C     0.1834     0.5244     0.356
A_1     C     0.1872     0.1593     0.8819
A_1     C     0.1809     0.139     0.6992
A_3     C     0.1321     0.2613     0.7557
A_2     C     0.5224     0.7836     0.3929
A_0     C     0.3338     0.0529     0.6838
A_0     C     0.1333     0.3777     0.0025
A_2     C     0.2648     0.1289     0.2925
A_0     C     0.8952     0.3174     0.5325
A_1     C     0.1774     0.2662     0.8899
A_1     C     0.131     0.1514     0.9481
A_1     C     0.1202     0.3297     0.0585
A_3     C     0.7769     0.3956     0.4256
A_2     C     0.2728     0.1853     0.6015
A_0     C     0.6246     0.7732     0.1766
A_0     C     0.8447     0.8502     0.3645
A_3     C     0.3246     0.2352     0.1671
A_3     C     0.65     0.4565     0.3962
A_2     C     0.3408     0.6602     0.8779
A_2     C     0.4331     0.209     0.9106
A_0     C     0.0303     0.8974     0.2971
A_3     C     0.5601     0.2882     0.3064
A_1     C     0.3452     0.2572     0.3292
A_3     C     0.1542     0.3392     0.0533
A_1     C     0.1343     0.6574     0.0411
A_1     C     0.4763     0.1667     0.1292
A_1     C     0.1008     0.5705     0.9227
A_2     C     0.4634     0.5485     0.0809
A_1     C     0.3781     0.5834     0.843
A_0     C     0.7042     0.7191     0.3938
A_0     C     0.8851     0.5893     0.9724
A_2     C     0.8642     0.9232     0.6774
A_0     C     0.5389     0.2175     0.1306
A_3     C     0.8093     0.0272     0.7132
A_3     C     0.9236     0.2727     0.0553
A_2     C     0.9564     0.5086     0.4484
A_0     C     0.1078     0.6239     0.0821
A_0     C     0.2875     0.2062     0.8785
A_3     C     0.2436     0.3447     0.1208
A_3     C     0.5641     0.1422     0.7558
A_2     C     0.9811     0.4657     0.9535
A_0     C     0.3727     0.9905     0.5111
A_1     C     0.5404     0.5824     0.1049
A_2     C     0.649     0.0443     0.2059
A_2     C     0.2671     0.35     0.2083
A_0     C     0.5984     0.1767     0.6543
A_1     C     0.8045     0.1328     0.4098
A_2     C     0.8833     0.999     0.3657
A_2     C     0.2673     0.8248     0.159
A_1     C     0.7308     0.4084     0.783
A_0     C     0.7682     0.3862     0.9994
A_3     C     0.9767     0.5396     0.5769
A_1     C     0.1029     0.3143     0.4436
A_0     C     0.5052     0.2781     0.4425
A_0     C     0.1757     0.4068     0.8072
A_1     C     0.0739     0.2955     0.0334
A_2     C     0.2046     0.886     0.0468
A_1     C     0.3037     0.9034     0.2864
A_3     C     0.1464     0.0058     0.2074
A_3     C     0.9018     0.28     0.3733
A_1     C     0.6759     0.6511     0.9552
A_2     C     0.6534     0.6501     0.044
A_3     C     0.1215     0.5664     0.6485
A_1     C     0.9438     0.2391     0.2355
A_0     C     0.6465     0.3527     0.6599
A_0     C     0.7877     0.7838     0.1939
A_2     C     0.2937     0.4128     0.6387
A_1     C     0.0007     0.1772     0.0902
A_3     C     0.6749     0.6729     0.0658
A_3     C     0.8407     0.0842     0.8332
A_3     C     0.9044     0.4129     0.5004
A_1     C     0.5082     0.8511     0.0427
A_3     C     0.8978     0.1969     0.9011
A_3     C     0.8802     0.9082     0.0076
A_2     C     0.8697     0.4664     0.0801
A_2     C     0.0026     0.3992     0.2411
A_0     C     0.99     0.5611     0.4074
A_3     C     0.5211     0.2098     0.6796
A_0     C     0.5818     0.4852     0.6282
A_0     C     0.9107     0.1922     0.3189
A_2     C     0.2264     0.3454     0.1828
A_2     C     0.893     0.6338     0.2058
A_1     C     0.194     0.3595     0.5799
A_2     C     0.3213     0.7839     0.2605
A_3     C     0.3521     0.7046     0.3429
A_1     C     0.1288     0.4199     0.0523
A_2     C     0.311     0.828     0.4913
A_1     C     0.2601     0.5615     0.0879
A_0     C     0.8107     0.2459     0.0026
A_2     C     0.3243     0.8963     0.0932
A_2     C     0.1411     0.5638     0.0904
A_3     C     0.3193     0.658     0.5451
A_1     C     0.9301     0.6653     0.3446
A_0     C     0.2997     0.5916     0.0835
A_3     C     0.4426     0.4734     0.1918
A_0     C     0.2863     0.9656     0.959
A_2     C     0.6244     0.2352     0.1051
A_3     C     0.4717     0.0556     0.7941
A_0     C     0.6134     0.4242     0.5005
A_2     C     0.0413     0.4431     0.1685
A_1     C     0.4731     0.6684     0.2369
A_1     C     0.7092     0.1163     0.1942
A_2     C     0.0232     0.1697     0.124
A_0     C     0.3797     0.8361     0.2594
A_0     C     0.5542     0.1864     0.4625
A_3     C     0.0243     0.2285     0.4427
A_3     C     0.1202     0.6519     0.2656
A_0     C     0.6803     0.056     0.977
A_2     C     0.9594     0.2067     0.883
A_0     C     0.5225     0.5241     0.456
A_2     C     0.8021     0.9295     0.8443
A_3     C     0.4123     0.5768     0.9799
A_3     C     0.451     0.5156     0.0851
A_3     C     0.2167     0.436     0.549
A_1     C     0.7726     0.7746     0.8993
A_0     C     0.2566     0.8691     0.4313
A_2     C     0.4672     0.7199     0.1961
A_1     C     0.5949     0.8763     0.102
A_0     C     0.0772     0.938     0.0247
A_3     C     0.5524     0.5238     0.0792
A_3     C     0.4268     0.9602     0.8663
A_3     C     0.025     0.105     0.538
A_1     C     0.797     0.363     0.1372
A_2     C     0.8874     0.0355     0.8247
A_0     C     0.5761     0.1006     0.916
A_1     C     0.0617     0.422     0.7337
A_1     C     0.4724     0.7908     0.394
A_3     C     0.6115     0.9601     0.5562
A_3     C     0.2485     0.8616     0.6127
A_3     C     0.3509     0.6674     0.5743
A_1     C     0.5223     0.7096     0.4895
A_0     C     0.6633     0.2925     0.1838
A_1     C     0.6702     0.1863     0.5539
A_3     C     0.6397     0.4079     0.8914
A_1     C     0.7006     0.6075     0.7497
A_2     C     0.5233     0.6017     0.8627
A_3     C     0.8403     0.7725     0.4643
A_2     C     0.4725     0.0064     0.648
A_3     C     0.6681     0.1576     0.9652
A_2     C     0.4875     0.3295     0.394
A_1     C     0.3815     0.4719     0.8966
A_3     C     0.8411     0.0279     0.0576
A_1     C     0.9648     0.3446     0.7828
A_1     C     0.0117     0.4745     0.1911
A_0     C     0.6519     0.7717     0.1299
A_1     C     0.5703     0.5601     0.4811
A_2     C     0.0923     0.9371     0.2159
A_3     C     0.6405     0.1749     0.1783
A_2     C     0.9789     0.2223     0.8246
A_2     C     0.2328     0.7025     0.8356
A_2     C     0.8136     0.7469     0.9313
A_0     C     0.4461     0.992     0.5681
A_1     C     0.4376     0.5298     0.5143
A_2     C     0.9061     0.2334     0.709
A_3     C     0.2053     0.6816     0.0432
A_1     C     0.5393     0.9817     0.821
A_3     C     0.8846     0.7501     0.2124
A_1     C     0.5253     0.5368     0.6969
A_2     C     0.9013     0.7742     0.6843
A_3     C     0.5916     0.2044     0.271
A_0     C     0.7762     0.4912     0.9138
A_2     C     0.3762     0.0351     0.9935
A_0     C     0.7166     0.4509     0.0696
A_2     C     0.2651     0.7355     0.2709
A_2     C     0.4074     0.9947     0.5869
A_3     C     0.6232     0.5062     0.4525
A_3     C     0.9468     0.0439     0.3802
A_2     C     0.4088     0.8784     0.8233
A_2     C     0.3726     0.2732     0.7191
A_1     C     0.4078     0.5948     0.1791
A_3     C     0.1772     0.8537     0.1661
A_1     C     0.5168     0.3824     0.8799
A_0     C     0.5989     0.4031     0.3169
A_3     C     0.7968     0.2468     0.154
A_2     C     0.5572     0.6618     0.8573
A_3     C     0.5031     0.5687     0.1116
A_3     C     0.6552     0.7288     0.6345
A_2     C     0.5689     0.8091     0.2126
A_1     C     0.0391     0.9584     0.6784
A_0     C     0.6515     0.2239     0.0169
A_0     C     0.0552     0.6805     0.1149
A_2     C     0.801     0.6496     0.4534
A_3     C     0.575     0.5182     0.7249
A_3     C     0.8627     0.5546     0.9918
A_3     C     0.1483     0.0984     0.4194
A_1     C     0.9511     0.456     0.7343
A_2     C     0.0879     0.4868     0.9343
A_0     C     0.0597     0.1003     0.1
A_2     C     0.0541     0.6519     0.589
A_1     C     0.2571     0.5131     0.1939
A_3     C     0.492     0.879     0.8887
A_1     C     0.4666     0.7453     0.6667
A_1     C     0.7115     0.2115     0.6771
A_3     C     0.2912     0.801     0.7202
A_1     C     0.3521     0.2889     0.7705
A_0     C     0.9988     0.4383     0.8972
A_2     C     0.173     0.7502     0.3867
A_2     C     0.4432     0.2406     0.9732
A_3     C     0.3777     0.6171     0.655
A_2     C     0.5328     0.9171     0.8009
A_2     C     0.7501     0.8612     0.3657
A_3     C     0.2074     0.4372     0.5004
A_2     C     0.0835     0.4784     0.9469
A_0     C     0.8769     0.1386     0.1033
A_0     C     0.4931     0.8856     0.1453
A_3     C     0.5271     0.8219     0.324
A_1     C     0.9429     0.7748     0.068
A_2     C     0.1797     0.4179     0.5361
A_3     C     0.1214     0.8565     0.7654
A_2     C     0.435     0.881     0.8991
A_1     C     0.2585     0.3938     0.8298
A_2     C     0.1913     0.5862     0.6957
A_1     C     0.1514     0.3685     0.8185
A_2     C     0.7337     0.8517     0.6122
A_0     C     0.5993     0.8925     0.8472
A_2     C     0.2884     0.2148     0.861
A_0     C     0.8135     0.902     0.7022
A_1     C     0.6792     0.7425     0.1387
A_3     C     0.7675     0.1239     0.1789
A_3     C     0.0846     0.615     0.3317
A_0     C     0.0307     0.013     0.8463
A_2     C     0.3951     0.0253     0.2654
A_3     C     0.2664     0.4748     0.4603
A_0     C     0.7793     0.1768     0.1983
A_3     C     0.9311     0.8666     0.6574
A_0     C     0.2392     0.1143     0.8109
A_3     C     0.9378     0.5532     0.6015
A_0     C     0.1523     0.6934     0.3516
A_2     C     0.2753     0.6589     0.7073
A_2     C     0.3432     0.307     0.9076
A_0     C     0.5369     0.415     0.8727
A_1     C     0.3948     0.183     0.9302
A_3     C     0.0974     0.2029     0.5152
A_1     C     0.7347     0.2513     0.8128
A_1     C     0.2719     0.2633     0.9445
A_1     C     0.8584     0.6942     0.5625
A_2     C     0.4092     0.2267     0.0029
A_2     C     0.5779     0.3968     0.79
A_0     C     0.5553     0.1105     0.9663
A_1     C     0.536     0.714     0.2858
A_0     C     0.5051     0.1291     0.0249
A_0     C     0.6724     0.2184     0.3724
A_2     C     0.278     0.4561     0.7231
A_2     C     0.896     0.2937     0.4859
A_0     C     0.1461     0.3681     0.2797
A_2     C     0.3893     0.4357     0.6404
A_0     C     0.8697     0.0353     0.694
A_3     C     0.3431     0.6227     0.3098
A_0     C     0.8946     0.8386     0.7216
A_2     C     0.849     0.2226     0.5717
A_3     C     0.4668     0.6383     0.1274
A_3     C     0.0261     0.2979     0.0693
A_2     C     0.0733     0.1598     0.4248
A_3     C     0.2174     0.4496     0.0173
A_3     C     0.0171     0.5895     0.0425
A_2     C     0.9298     0.6982     0.9157
A_2     C     0.0109     0.8738     0.7149
A_2     C     0.4408     0.6488     0.801
A_2     C     0.2807     0.2095     0.6227
A_2     C     0.0089     0.1306     0.2922
A_1     C     0.6248     0.5877     0.6782
A_1     C     0.8038     0.052     0.0551
A_1     C     0.4601     0.0471     0.8894
A_1     C     0.6012     0.0671     0.5474
A_1     C     0.3837     0.3331     0.0306
A_2     C     0.4543     0.1145     0.8197
A_2     C     0.2836     0.768     0.635
A_0     C     0.5111     0.3581     0.1326
A_1     C     0.4221     0.3226     0.1266
A_2     C     0.9595     0.8913     0.0522
A_3     C     0.5404     0.8916     0.2564
A_2     C     0.113     0.3625     0.523
A_0     C     0.6844     0.2919     0.2893
A_2     C     0.4927     0.1718     0.7549
A_3     C     0.9447     0.6189     0.2518
A_2     C     0.9774     0.0504     0.3696
A_2     C     0.7044     0.1436     0.9613
A_0     C     0.7607     0.0577     0.8264
A_2     C     0.8118     0.3902     0.7146
A_3     C     0.1202     0.5055     0.6279
A_3     C     0.1751     0.6891     0.4843
A_0     C     0.2193     0.6368     0.8489
A_0     C     0.9954     0.1176     0.7414
A_2     C     0.5339     0.1231     0.5687
A_1     C     0.5073     0.9134     0.1189
A_1     C     0.7229     0.3989     0.0225
A_3     C     0.8571     0.5888     0.2087
A_0     C     0.7439     0.3138     0.5383
A_1     C     0.6199     0.9303     0.1208
A_1     C     0.2368     0.5707     0.6418
A_1     C     0.2891     0.7403     0.9223
A_1     C     0.4421     0.5673     0.0621
A_1     C     0.4952     0.1428     0.299
A_1     C     0.9801     0.439     0.0678
A_2     C     0.8756     0.8379     0.9321
A_2     C     0.8579     0.4426     0.8822
A_2     C     0.6244     0.6071     0.8718
A_2     C     0.1155     0.3565     0.8549
A_0     C     0.0913     0.4889     0.8477
A_1     C     0.2298     0.505     0.0164
A_0     C     0.9426     0.1753     0.7826
A_0     C     0.0828     0.9415     0.7856
A_1     C     0.5847     0.6863     0.2523
A_3     C     0.4088     0.4913     0.2553
A_0     C     0.3581     0.3567     0.6103
A_0     C     0.6663     0.2991     0.2465
A_2     C     0.8303     0.6628     0.8363
A_1     C     0.458     0.454     0.3157
A_1     C     0.2084     0.4651     0.6115
A_1     C     0.4348     0.9044     0.0698
A_3     C     0.7983     0.5274     0.599
A_0     C     0.2117     0.5735     0.7321
A_3     C     0.664     0.5546     0.4599
A_3     C     0.35     0.0228     0.2937
A_1     C     0.2053     0.7888     0.4443
A_1     C     0.4355     0.8923     0.5616
A_0     C     0.9957     0.2769     0.0731
A_1     C     0.9213     0.4856     0.5119
A_2     C     0.9207     0.0871     0.2296
A_0     C     0.7055     0.4286     0.1794
A_3     C     0.0361     0.6433     0.2524
A_1     C     0.906     0.5894     0.7248
A_1     C     0.5638     0.0082     0.0033
A_3     C     0.0927     0.1559     0.3599
A_3     C     0.8409     0.0422     0.508
A_0     C     0.6197     0.98     0.0224
A_3     C     0.4428     0.3211     0.6812
A_1     C     0.612     0.3929     0.3042
A_3     C     0.2041     0.7697     0.8795
A_2     C     0.6316     0.6853     0.7008
A_0     C     0.2831     0.4111     0.1063
A_1     C     0.3833     0.3566     0.3171
A_1     C     0.5875     0.1735     0.3222
A_2     C     0.8218     0.0537     0.4621
A_2     C     0.2788     0.774     0.289
A_2     C     0.416     0.9756     0.4244
A_2     C     0.3003     0.2636     0.6032
A_2     C     0.7451     0.9897     0.1141
A_3     C     0.8129     0.9483     0.5865
A_1     C     0.0574     0.4044     0.428
A_2     C     0.8158     0.4682     0.3683
A_3     C     0.8301     0.3238     0.9443
A_2     C     0.4104     0.2242     0.4167
A_3     C     0.6077     0.7036     0.0175
A_0     C     0.358     0.6342     0.7344
A_1     C     0.4237     0.0719     0.7587
A_3     C     0.2109     0.0038     0.9579
A_0     C     0.0244     0.7491     0.6184
A_0     C     0.3943     0.0025     0.8059
A_0     C     0.5341     0.1342     0.4591
A_1     C     0.7219     0.9703     0.3533
A_1     C     0.9871     0.2475     0.119
A_1     C     0.373     0.5403     0.5018
A_2     C     0.452     0.5864     0.046
A_3     C     0.8034     0.9053     0.3641
A_1     C     0.0063     0.7095     0.8076
A_2     C     0.2099     0.2861     0.3326
A_3     C     0.8488     0.5458     0.7919
A_3     C     0.0615     0.7884     0.755
A_1     C     0.5855     0.2772     0.1097
A_2     C     0.9374     0.0471     0.7151
A_1     C     0.3405     0.1328     0.7062
A_3     C     0.652     0.1713     0.4041
A_0     C     0.0385     0.4584     0.9299
A_0     C     0.2537     0.9533     0.5177
A_1     C     0.4033     0.9147     0.0176
A_1     C     0.3102     0.1223     0.1613
A_1     C     0.5044     0.2903     0.7214
A_1     C     0.4289     0.8292     0.5728
A_0     C     0.4034     0.7856     0.0022
A_3     C     0.8391     0.2067     0.4951
A_0     C     0.203     0.6608     0.7708
A_3     C     0.5084     0.9179     0.2864
A_3     C     0.3197     0.3895     0.3956
A_3     C     0.9993     0.1058     0.7655
A_0     C     0.1987     0.638     0.3929
A_0     C     0.8619     0.5091     0.1476
A_0     C     0.9649     0.0829     0.752
A_3     C     0.2797     0.2096     0.8285
A_1     C     0.371     0.9964     0.6317
A_1     C     0.7469     0.8568     0.6694
A_0     C     0.109     0.6003     0.9047
A_0     C     0.5119     0.6211     0.1651
A_3     C     0.4356     0.1345     0.7284
A_2     C     0.0564     0.6039     0.5539
A_2     C     0.6049     0.4974     0.9121
A_0     C     0.5495     0.796     0.3095
A_3     C     0.3464     0.5305     0.6335
A_1     C     0.361     0.2573     0.398
A_1     C     0.8696     0.2303     0.5294
A_1     C     0.9234     0.9639     0.8725
A_2     C     0.9527     0.524     0.2231
A_2     C     0.3628     0.4316     0.9491
A_3     C     0.062     0.0907     0.1577
A_0     C     0.1047     0.845     0.4746
A_2     C     0.4246     0.8997     0.0684
A_3     C     0.2644     0.3023     0.6432
A_3     C     0.9087     0.3046     0.8999
A_0     C     0.744     0.2105     0.2141
A_0     C     0.8191     0.2073     0.576
A_1     C     0.7202     0.5049     0.5159
A_0     C     0.394     0.0443     0.4009
A_1     C     0.9608     0.5427     0.8574
A_2     C     0.5433     0.3132     0.45
A_2     C     0.6968     0.4574     0.5792
A_1     C     0.5315     0.3513     0.9525
A_2     C     0.0201     0.1366     0.9255
A_3     C     0.5646     0.0064     0.2889
A_2     C     0.7223     0.1287     0.7876
A_1     C     0.2762     0.1736     0.1517
A_2     C     0.9471     0.2133     0.7801
A_1     C     0.8961     0.9541     0.8361
A_0     C     0.4634     0.4724     0.9975
A_2     C     0.0928     0.9664     0.5604
A_2     C     0.9907     0.7647     0.511
A_0     C     0.6298     0.625     0.6885
A_0     C     0.2374     0.2461     0.2599
A_0     C     0.1253     0.3292     0.5862
A_1     C     0.2192     0.8378     0.9344
A_1     C     0.953     0.4959     0.8554
A_3     C     0.7542     0.9673     0.447
A_3     C     0.7386     0.5019     0.3212
A_3     C     0.5778     0.9186     0.6808
A_2     C     0.9832     0.6565     0.6952
A_2     C     0.3388     0.4568     0.6928
A_2     C     0.9571     0.8759     0.4607
A_0     C     0.074     0.4608     0.2225
A_2     C     0.0138     0.0836     0.5264
A_3     C     0.5714     0.4031     0.8849
A_1     C     0.0014     0.6273     0.2326
A_3     C     0.9017     0.0403     0.5588
A_2     C     0.8871     0.224     0.6044
A_2     C     0.415     0.9865     0.8165
A_3     C     0.2249     0.0241     0.4799
A_3     C     0.306     0.6372     0.5553
A_3     C     0.496     0.3599     0.1968
A_2     C     0.9699     0.5667     0.5779
A_0     C     0.8058     0.987     0.5773
A_0     C     0.0034     0.9845     0.5209
A_0     C     0.2387     0.6854     0.5848
A_3     C     0.9594     0.6864     0.2643
A_3     C     0.9457     0.321     0.8285
A_3     C     0.812     0.5594     0.4979
A_0     C     0.3156     0.451     0.6068
A_0     C     0.2153     0.7895     0.0261
A_1     C     0.61     0.5174     0.0757
A_1     C     0.7149     0.7654     0.6061
A_0     C     0.7555     0.5972     0.7363
A_1     C     0.173     0.467     0.5537
A_3     C     0.9174     0.5279     0.0096
A_2     C     0.7621     0.854     0.8878
A_0     C     0.2282     0.6639     0.8633
A_1     C     0.1931     0.9095     0.5923
A_3     C     0.3126     0.638     0.4398
A_1     C     0.6155     0.0007     0.9668
A_1     C     0.786     0.3799     0.0779
A_0     C     0.7343     0.4172     0.2778
A_0     C     0.4999     0.9734     0.3526
A_1     C     0.7784     0.4563     0.323
A_2     C     0.1465     0.401     0.751
A_1     C     0.5543     0.1001     0.0495
A_2     C     0.4609     0.7577     0.4495
A_2     C     0.5747     0.7613     0.7919
A_2     C     0.2779     0.5393     0.9733
A_1     C     0.0145     0.6492     0.8318
A_3     C     0.9037     0.9359     0.0318
A_2     C     0.8925     0.4954     0.8099
A_1     C     0.4602     0.6121     0.5585
A_3     C     0.2522     0.1048     0.3942
A_0     C     0.4947     0.5385     0.3637
A_1     C     0.6716     0.5012     0.3283
A_3     C     0.6006     0.8066     0.5454
A_2     C     0.7975     0.5941     0.6728
A_3     C     0.8199     0.1284     0.6393
A_2     C     0.167     0.3526     0.6385
A_3     C     0.3229     0.7073     0.1454
A_3     C     0.0047     0.9818     0.75
A_2     C     0.4575     0.7138     0.7513
A_2     C     0.7673     0.6374     0.9443
A_1     C     0.5279     0.5612     0.4922
A_2     C     0.7419     0.4988     0.0199
A_3     C     0.1679     0.238     0.7025
A_2     C     0.2678     0.5254     0.2399
A_0     C     0.5832     0.1309     0.993
A_0     C     0.4522     0.8952     0.6985
A_2     C     0.6286     0.5024     0.4995
A_3     C     0.69     0.1566     0.2206
A_2     C     0.9352     0.2428     0.4481
A_1     C     0.7305     0.2379     0.0141
A_2     C     0.4447     0.3701     0.3552
A_3     C     0.7323     0.1494     0.3139
A_0     C     0.8568     0.6302     0.9889
A_3     C     0.0787     0.0349     0.935
A_3     C     0.7685     0.2224     0.1156
A_0     C     0.11     0.6111     0.0827
A_3     C     0.5216     0.9198     0.6338
A_1     C     0.0876     0.2035     0.8192
A_0     C     0.704     0.2803     0.6963
A_3     C     0.2155     0.7585     0.7843
A_0     C     0.5658     0.0466     0.686
A_0     C     0.4541     0.6592     0.2282
A_2     C     0.6505     0.5935     0.252
A_3     C     0.0936     0.8097     0.6418
A_3     C     0.5839     0.4662     0.9954
A_2     C     0.0086     0.7866     0.7325
A_0     C     0.581     0.1714     0.137
A_2     C     0.5172     0.9587     0.6209
A_3     C     0.0798     0.0021     0.4378
A_1     C     0.6048     0.7789     0.2464
A_0     C     0.7492     0.2526     0.8928
A_2     C     0.3624     0.2793     0.3448
A_1     C     0.4467     0.7968     0.4594
A_3     C     0.5175     0.9804     0.226
A_1     C     0.1338     0.6288     0.8102
A_3     C     0.9571     0.2709     0.3668
A_1     C     0.9844     0.2114     0.4174
A_1     C     0.0622     0.1515     0.2265
A_3     C     0.7902     0.2719     0.3049
A_2     C     0.4163     0.866     0.1947
A_1     C     0.386     0.6904     0.7255
A_1     C     0.4818     0.8112     0.3914
A_2     C     0.6542     0.5716     0.2079
A_0     C     0.3628     0.9369     0.3984
A_1     C     0.7382     0.8514     0.4301
A_1     C     0.759     0.1329     0.9767
A_0     C     0.7738     0.0913     0.6399
A_2     C     0.4828     0.0558     0.0995
A_1     C     0.8546     0.0935     0.2486
A_2     C     0.6583     0.0101     0.6652
A_1     C     0.5391     0.5472     0.5474
A_2     C     0.4358     0.912     0.2249
A_0     C     0.9355     0.4191     0.0546
A_1     C     0.6506     0.0013     0.9275
A_1     C     0.8887     0.2616     0.4156
A_1     C     0.0914     0.3045     0.598
A_2     C     0.3852     0.6186     0.8303
A_3     C     0.304     0.2415     0.1228
A_2     C     0.225     0.1845     0.9304
A_3     C     0.9614     0.2085     0.9428
A_1     C     0.2046     0.5092     0.7065
A_0     C     0.3104     0.1317     0.1031
A_0     C     0.6576     0.0787     0.4678
A_1     C     0.754     0.6943     0.7231
A_2     C     0.344     0.3624     0.6515
A_2     C     0.7784     0.7501     0.1089
A_2     C     0.4497     0.4828     0.5104
A_3     C     0.4694     0.8385     0.0234
A_3     C     0.1616     0.2031     0.9293
A_2     C     0.9226     0.2944     0.9964
A_2     C     0.3399     0.6837     0.0716
A_3     C     0.4558     0.6807     0.6895
A_2     C     0.0282     0.9036     0.3389
A_3     C     0.1026     0.0121     0.4798
A_0     C     0.9441     0.4766     0.8117
A_0     C     0.6471     0.5621     0.7033
A_0     C     0.1994     0.2527     0.8415
A_0     C     0.026     0.0771     0.69
A_1     C     0.1877     0.2624     0.3603
A_1     C     0.1333     0.5868     0.296
A_2     C     0.5194     0.6272     0.2489
A_2     C     0.0807     0.2326     0.3266
A_0     C     0.062     0.4982     0.5457
A_1     C     0.9889     0.9054     0.2853
A_3     C     0.9435     0.7083     0.9223
A_2     C     0.485     0.4103     0.1582
A_3     C     0.3858     0.9658     0.8141
A_0     C     0.2096     0.8083     0.524
A_0     C     0.3837     0.4117     0.6179
A_1     C     0.4455     0.1227     0.547
A_3     C     0.5167     0.1264     0.1611
A_2     C     0.6001     0.918     0.5007
A_2     C     0.9003     0.7977     0.3504
A_2     C     0.6974     0.0286     0.251
A_0     C     0.3694     0.9804     0.4754
A_3     C     0.2648     0.8385     0.8339
A_3     C     0.7029     0.1012     0.0028
A_0     C     0.8266     0.5824     0.1552
A_2     C     0.7906     0.9804     0.4073
A_0     C     0.8834     0.4366     0.0879
A_0     C     0.5197     0.9518     0.6682
A_0     C     0.2907     0.6264     0.6924
A_1     C     0.6186     0.9756     0.268
A_3     C     0.5391     0.7832     0.0495
A_1     C     0.1177     0.7371     0.1248
A_2     C     0.6737     0.1642     0.2717
A_3     C     0.4237     0.5724     0.2301
A_3     C     0.6067     0.0081     0.7306
A_3     C     0.9417     0.5942     0.0861
A_2     C     0.0103     0.9393     0.7088
A_1     C     0.9546     0.8425     0.0256
A_3     C     0.2458     0.76     0.976
A_0     C     0.0521     0.4546     0.9821
A_2     C     0.5841     0.277     0.2472
A_1     C     0.1935     0.8525     0.2283
A_1     C     0.6233     0.7883     0.7813
A_1     C     0.7305     0.1079     0.586
A_2     C     0.7136     0.3115     0.7868
A_2     C     0.0117     0.8503     0.1641
A_2     C     0.4383     0.0577     0.7127
A_2     C     0.2716     0.9412     0.9553
A_0     C     0.2463     0.8655     0.1592
A_3     C     0.201     0.2036     0.3384
A_1     C     0.8659     0.5888     0.7347
A_3     C     0.2726     0.1288     0.7693
A_0     C     0.7801     0.1726     0.8863
A_3     C     0.0069     0.4954     0.4835
A_0     C     0.3112     0.0785     0.1131
A_0     C     0.4419     0.658     0.6936
A_1     C     0.3314     0.5895     0.7128
A_3     C     0.8191     0.3948     0.3479
A_2     C     0.8804     0.2663     0.1323
A_3     C     0.2574     0.3674     0.1564
A_0     C     0.2806     0.2541     0.401
A_2     C     0.009     0.2305     0.0292
A_1     C     0.4521     0.7943     0.9424
A_3     C     0.9564     0.5953     0.6222
A_2     C     0.1418     0.9781     0.7249
A_2     C     0.2467     0.0065     0.4032
A_2     C     0.9694     0.159     0.9072
A_1     C     0.5816     0.5681     0.6536
A_0     C     0.5505     0.3362     0.1842
A_3     C     0.0149     0.5694     0.4754
A_3     C     0.2894     0.6967     0.4004
A_1     C     0.7603     0.1064     0.6018
A_2     C     0.0164     0.1267     0.3334
A_0     C     0.5156     0.4743     0.92
A_0     C     0.5147     0.9379     0.9783
A_0     C     0.6289     0.764     0.8325
A_3     C     0.0139     0.1128     0.371
A_2     C     0.9216     0.9254     0.2125
A_1     C     0.0866     0.2345     0.8555
A_2     C     0.7451     0.5638     0.2525
A_0     C     0.3631     0.4698     0.356
A_1     C     0.6631     0.4627     0.3205
A_0     C     0.2474     0.8588     0.4637
A_1     C     0.6679     0.0449     0.6447
A_0     C     0.8184     0.7313     0.1995
A_1     C     0.7637     0.5402     0.181
A_1     C     0.8748     0.9806     0.2805
A_0     C     0.305     0.0429     0.2416
A_2     C     0.6804     0.3231     0.6743
A_1     C     0.0528     0.9433     0.6019
A_1     C     0.8297     0.4695     0.8411
A_2     C     0.9797     0.1644     0.1694
A_0     C     0.8227     0.2886     0.9271
A_1     C     0.9281     0.508     0.8799
A_1     C     0.9829     0.3938     0.1698
A_1     C     0.6231     0.1983     0.4952
A_0     C     0.7416     0.9262     0.5984
A_3     C     0.8553     0.6286     0.7245
A_2     C     0.8301     0.4138     0.7039
A_1     C     0.8457     0.3221     0.4803
A_1     C     0.956     0.049     0.9201
A_1     C     0.4214     0.2476     0.3139
A_2     C     0.6264     0.1295     0.0841
A_2     C     0.7455     0.4082     0.5284
A_2     C     0.6544     0.3167     0.6011
A_2     C     0.8665     0.4835     0.6632
A_3     C     0.5341     0.9016     0.3184
A_3     C     0.0712     0.2934     0.1438
A_2     C     0.347     0.7322     0.4842
A_3     C     0.0664     0.0647     0.724
A_1     C     0.0171     0.7202     0.3953
A_1     C     0.4152     0.5836     0.9657
A_0     C     0.336     0.5674     0.6433
A_1     C     0.9341     0.3882     0.5405
A_3     C     0.551     0.4464     0.5194
A_2     C     0.3606     0.033     0.1103
A_3     C     0.1728     0.544     0.2166
A_1     C     0.0304     0.9756     0.8869
A_1     C     0.5766     0.9756     0.9299
A_0     C     0.2098     0.5459     0.2054
A_2     C     0.2099     0.3513     0.8168
A_0     C     0.9726     0.7574     0.8981
A_0     C     0.4641     0.0373     0.7527
A_2     C     0.7838     0.6575     0.4023
A_2     C     0.9601     0.8538     0.6113
A_2     C     0.7109     0.8519     0.5395
A_3     C     0.3798     0.715     0.0251
A_3     C     0.8605     0.8289     0.2586
A_2     C     0.1796     0.8196     0.7154
A_0     C     0.0961     0.1035     0.2155
A_1     C     0.0887     0.3822     0.5056
A_2     C     0.207     0.7505     0.5781
A_1     C     0.4393     0.8485     0.9978
A_1     C     0.9918     0.6573     0.1805
A_1     C     0.3936     0.6897     0.6078
A_3     C     0.2807     0.7604     0.8947
A_3     C     0.4328     0.8694     0.8697
A_1     C     0.4949     0.8352     0.5358
A_1     C     0.9798     0.9105     0.6897
A_1     C     0.509     0.6853     0.3449
A_3     C     0.1863     0.6386     0.3839
A_1     C     0.8545     0.9834     0.7211
A_1     C     0.8464     0.5984     0.1207
A_0     C     0.1169     0.2774     0.7145
A_2     C     0.2076     0.4836     0.1717
A_0     C     0.5056     0.995     0.5993
A_0     C     0.8622     0.0211     0.4754
A_0     C     0.6352     0.0278     0.9453
A_3     C     0.348     0.4892     0.6779
A_2     C     0.5041     0.0978     0.5919
A_3     C     0.199     0.7851     0.3325
A_2     C     0.274     0.9087     0.4325
A_1     C     0.2455     0.8374     0.3705
A_2     C     0.0422     0.5218     0.2529
A_2     C     0.8904     0.2853     0.3064
A_2     C     0.0997     0.8349     0.268
A_2     C     0.1194     0.1437     0.6345
A_3     C     0.6404     0.3684     0.6257
A_1     C     0.3385     0.741     0.745
A_0     C     0.3797     0.701     0.585
A_2     C     0.9087     0.813     0.7402
A_3     C     0.6087     0.1327     0.0036
A_2     C     0.382     0.1862     0.964
A_1     C     0.8042     0.73     0.5331
A_2     C     0.4806     0.222     0.8665
A_1     C     0.3919     0.5125     0.4507
A_0     C     0.5161     0.8903     0.1126
A_0     C     0.9926     0.227     0.2877
A_0     C     0.4877     0.9021     0.6426
A_3     C     0.7873     0.9189     0.11
A_1     C     0.2687     0.4641     0.9711
A_1     C     0.5063     0.2816     0.2236
A_2     C     0.6404     0.0392     0.4911
A_3     C     0.5156     0.1239     0.9175
A_1     C     0.9424     0.9198     0.8023
A_1     C     0.0118     0.4597     0.4412
A_3     C     0.2045     0.1795     0.1375
A_1     C     0.8096     0.6874     0.0639
A_0     C     0.6263     0.6598     0.3517
A_3     C     0.8428     0.8899     0.7368
A_0     C     0.5624     0.4287     0.6509
A_1     C     0.2581     0.6431     0.3367
A_3     C     0.8587     0.8065     0.512
A_2     C     0.8921     0.816     0.9928
A_2     C     0.529     0.1221     0.4338
A_1     C     0.8499     0.303     0.6191
A_1     C     0.3111     0.9799     0.335
A_0     C     0.4008     0.6302     0.5282
A_0     C     0.5755     0.7675     0.7954
A_3     C     0.2263     0.7986     0.3212
A_1     C     0.8724     0.0362     0.9623
A_1     C     0.7078     0.3912     0.7371
A_3     C     0.0593     0.3072     0.0711
A_3     C     0.0162     0.2282     0.4364
A_3     C     0.557     0.3878     0.4765
A_1     C     0.7442     0.4878     0.0071
A_3     C     0.5971     0.7699     0.5125
A_0     C     0.5723     0.0102     0.4582
A_1     C     0.1605     0.2836     0.236
A_1     C     0.2904     0.2201     0.8451
A_2     C     0.0371     0.4395     0.7765
A_0     C     0.6627     0.9392     0.606
A_0     C     0.8601     0.9965     0.1697
A_3     C     0.7866     0.0625     0.4176
A_3     C     0.2117     0.6341     0.9744
A_2     C     0.9811     0.6186     0.1039
A_0     C     0.7455     0.2021     0.4681
A_2     C     0.3415     0.3107     0.1184
A_2     C     0.9237     0.4762     0.915
A_1     C     0.5818     0.8976     0.6025
A_2     C     0.0414     0.7819     0.1713
A_3     C     0.6616     0.3908     0.7171
A_1     C     0.7407     0.6795     0.064
A_3     C     0.6698     0.6927     0.7873
A_3     C     0.8911     0.8281     0.3676
A_2     C     0.3353     0.6456     0.2063
A_1     C     0.2992     0.8101     0.6462
A_3     C     0.4482     0.4765     0.9691
A_2     C     0.916     0.7389     0.2846
A_0     C     0.7674     0.4632     0.1232
A_0     C     0.5025     0.5057     0.1187
A_0     C     0.1114     0.7088     0.1208
A_1     C     0.3176     0.2794     0.102
A_0     C     0.2041     0.1109     0.855
A_0     C     0.8946     0.5596     0.2154
A_1     C     0.4256     0.5338     0.5495
A_2     C     0.5193     0.0546     0.329
A_0     C     0.0413     0.8286     0.7394
A_1     C     0.1103     0.8593     0.2093
A_0     C     0.1238     0.2735     0.3688
A_3     C     0.5815     0.3322     0.6896
A_1     C     0.0024     0.9367     0.9407
A_1     C     0.4649     0.7467     0.8663
A_1     C     0.6144     0.2517     0.485
A_2     C     0.0387     0.0443     0.7423
A_1     C     0.3404     0.2956     0.259
A_2     C     0.3015     0.5169     0.0269
A_0     C     0.0801     0.8495     0.3423
A_3     C     0.9811     0.9841     0.9153
A_3     C     0.524     0.874     0.4581
A_0     C     0.2146     0.3957     0.9683
A_2     C     0.6366     0.1931     0.2165
A_1     C     0.5075     0.7055     0.5597
A_0     C     0.3785     0.1584     0.8316
A_2     C     0.4863     0.2197     0.179
A_0     C     0.2174     0.1744     0.1211
A_2     C     0.217     0.0518     0.5977
A_3     C     0.582     0.6226     0.6401
A_0     C     0.5662     0.3071     0.4589
A_1     C     0.2439     0.0147     0.5872
A_0     C     0.9155     0.4666     0.1861
A_1     C     0.644     0.2696     0.4424
A_0     C     0.6611     0.2488     0.0752
A_2     C     0.9345     0.8578     0.1896
A_1     C     0.9394     0.1665     0.2459
A_3     C     0.4071     0.9098     0.9118
A_2     C     0.6103     0.9136     0.3701
A_3     C     0.5992     0.7427     0.0371
A_1     C     0.7033     0.1805     0.683
A_1     C     0.9366     0.9502     0.026
A_3     C     0.9779     0.9572     0.9199
A_1     C     0.3498     0.8764     0.2389
A_1     C     0.2681     0.5501     0.8843
A_0     C     0.2245     0.6083     0.6676
A_2     C     0.5287     0.3522     0.1722
A_0     C     0.8133     0.8838     0.5077
A_2     C     0.5746     0.6251     0.9003
A_3     C     0.7283     0.2203     0.2885
A_0     C     0.1588     0.1048     0.8021
A_1     C     0.6934     0.1189     0.0145
A_0     C     0.1067     0.093     0.9134
A_2     C     0.4966     0.8638     0.2252
A_3     C     0.6194     0.458     0.3187
A_1     C     0.6513     0.5587     0.5982
A_1     C     0.0765     0.3597     0.1333
A_2     C     0.335     0.4423     0.1437
A_2     C     0.3603     0.5868     0.1626
A_1     C     0.7086     0.5465     0.0575
A_0     C     0.3144     0.0653     0.2027
A_1     C     0.0759     0.5008     0.9298
A_0     C     0.6875     0.3094     0.2034
A_2     C     0.9967     0.8483     0.8686
A_1     C     0.5635     0.7405     0.6162
A_0     C     0.3984     0.9573     0.2226
A_2     C     0.9952     0.2584     0.1231
A_0     C     0.1848     0.3803     0.0605
A_0     C     0.4691     0.9954     0.5205
A_2     C     0.3414     0.9671     0.0971
A_2     C     0.2757     0.8726     0.0583
A_0     C     0.2628     0.6169     0.5474
A_0     C     0.0136     0.5004     0.6747
A_3     C     0.4994     0.2317     0.8975
A_3     C     0.952     0.5451     0.6594
A_0     C     0.534     0.4757     0.619
A_2     C     0.8505     0.8786     0.8982
A_2     C     0.8301     0.6504     0.8925
A_0     C     0.3473     0.4448     0.2625
A_1     C     0.0423     0.949     0.5757
A_3     C     0.6542     0.5083     0.201
A_1     C     0.339     0.0502     0.1388
A_2     C     0.4703     0.268     0.1628
A_1     C     0.1332     0.4759     0.6005
A_2     C     0.2709     0.69     0.803
A_3     C     0.1298     0.2732     0.1269
A_3     C     0.1927     0.4084     0.6457
A_3     C     0.8474     0.2155     0.5652
A_3     C     0.3827     0.4448     0.5809
A_2     C     0.4555     0.2462     0.799
A_3     C     0.4414     0.4267     0.0118
A_0     C     0.3849     0.1269     0.3771
A_3     C     0.9341     0.7329     0.2272
A_2     C     0.7283     0.1762     0.222
A_2     C     0.8679     0.8169     0.2289
A_3     C     0.4937     0.1213     0.1941
A_1     C     0.53     0.8215     0.6978
A_0     C     0.0192     0.1449     0.9333
A_0     C     0.8236     0.7492     0.2723
A_0     C     0.8865     0.8831     0.7676
A_3     C     0.6682     0.6577     0.5567
A_2     C     0.106     0.6754     0.1707
A_0     C     0.2649     0.7444     0.1061
A_3     C     0.7987     0.6924     0.4029
A_1     C     0.4513     0.9384     0.6241
A_0     C     0.7991     0.7326     0.9701
A_2     C     0.5248     0.7932     0.2449
A_1     C     0.958     0.6701     0.7691
A_2     C     0.945     0.3341     0.0069
A_2     C     0.6668     0.2248     0.7272
A_1     C     0.0973     0.3188     0.3265
A_2     C     0.253     0.3845     0.4886
A_1     C     0.9975     0.4016     0.401
A_3     C     0.4841     0.8015     0.2582
A_2     C     0.0577     0.9759     0.2615
A_3     C     0.0972     0.0885     0.2487
A_1     C     0.3731     0.8733     0.2806
A_1     C     0.2936     0.353     0.9289
A_2     C     0.3691     0.9851     0.3387
A_3     C     0.7839     0.1166     0.0299
A_3     C     0.0978     0.2465     0.0229
A_1     C     0.2559     0.6303     0.6189
A_0     C     0.9972     0.6807     0.6491
A_2     C     0.5778     0.1394     0.8848
A_2     C     0.4162     0.7272     0.3311
A_2     C     0.5958     0.989     0.898
A_2     C     0.5744     0.9739     0.084
A_0     C     0.8995     0.7639     0.642
A_3     C     0.3911     0.955     0.245
A_1     C     0.9014     0.3679     0.0323
A_0     C     0.8718     0.6864     0.5249
A_2     C     0.2516     0.7809     0.7132
A_1     C     0.8834     0.1682     0.3616
A_0     C     0.4358     0.6507     0.3373
A_3     C     0.8515     0.8234     0.6968
A_3     C     0.6663     0.7856     0.5958
A_1     C     0.4846     0.7862     0.644
A_0     C     0.5253     0.4344     0.4655
A_3     C     0.0982     0.4999     0.9362
A_3     C     0.4805     0.8596     0.6342
A_2     C     0.1225     0.3526     0.4146
A_1     C     0.7903     0.9028     0.6432
A_1     C     0.2976     0.9263     0.2513
A_0     C     0.2171     0.25     0.7812
A_3     C     0.8843     0.2822     0.334
A_3     C     0.9952     0.6166     0.7568
A_0     C     0.6662     0.3908     0.0318
A_0     C     0.0712     0.0398     0.7016
A_2     C     0.4359     0.3737     0.4816
A_2     C     0.2648     0.7185     0.279
A_3     C     0.6884     0.0952     0.7066
A_1     C     0.4386     0.7846     0.5498
A_3     C     0.5311     0.1629     0.6317
A_2     C     0.8619     0.1046     0.7067
A_2     C     0.6618     0.1562     0.2906
A_0     C     0.0053     0.2114     0.4648
A_0     C     0.7277     0.1201     0.0261
A_0     C     0.3201     0.3597     0.1063
A_3     C     0.868     0.6353     0.2859
A_0     C     0.9714     0.3927     0.6997
A_1     C     0.3305     0.8148     0.5144
A_3     C     0.2607     0.7711     0.9692
A_0     C     0.9699     0.7915     0.7956
A_2     C     0.6716     0.4881     0.3031
A_1     C     0.1348     0.8633     0.0794
A_2     C     0.945     0.1324     0.4159
A_1     C     0.3111     0.8492     0.2531
A_2     C     0.4276     0.19     0.2288
A_2     C     0.218     0.4505     0.5498
A_3     C     0.1852     0.8455     0.3191
A_2     C     0.0629     0.6179     0.2199
A_2     C     0.2879     0.5278     0.5883
A_0     C     0.1836     0.2831     0.5818
A_3     C     0.0489     0.0351     0.6474
A_0     C     0.4608     0.2149     0.862
A_1     C     0.1298     0.8194     0.6906
A_1     C     0.5686     0.9806     0.1305
A_2     C     0.0847     0.6558     0.6994
A_0     C     0.7315     0.1951     0.4205
A_0     C     0.0488     0.5181     0.1865
A_2     C     0.2331     0.5671     0.462
A_3     C     0.7338     0.4033     0.4443
A_3     C     0.7629     0.6379     0.2675
A_0     C     0.8955     0.8063     0.6859
A_3     C     0.1212     0.3645     0.5639
A_2     C     0.742     0.9177     0.5711
A_2     C     0.0456     0.5296     0.7869
A_2     C     0.5815     0.3851     0.3968
A_2     C     0.7493     0.0033     0.648
A_3     C     0.5629     0.5369     0.0815
A_0     C     0.4689     0.5264     0.534
A_3     C     0.8251     0.1488     0.7538
A_0     C     0.0106     0.9514     0.638
A_0     C     0.7175     0.0589     0.9146
A_3     C     0.0274     0.9848     0.6723
A_3     C     0.3907     0.4624     0.9543
A_1     C     0.4153     0.8594     0.4105
A_2     C     0.9884     0.4096     0.6423
A_2     C     0.8902     0.6947     0.2544
A_2     C     0.0547     0.837     0.1109
A_3     C     0.8212     0.2989     0.7115
A_3     C     0.9339     0.989     0.0937
A_1     C     0.1799     0.1611     0.9307
A_2     C     0.4735     0.7788     0.5912
A_2     C     0.8015     0.2612     0.9625
A_1     C     0.004     0.1687     0.1267
A_2     C     0.5655     0.1752     0.8245
A_3     C     0.7586     0.4241     0.7951
A_3     C     0.6232     0.3863     0.9382
A_1     C     0.8657     0.3938     0.8204
A_2     C     0.9475     0.6684     0.6339
A_0     C     0.4102     0.5324     0.4957
A_1     C     0.0523     0.2708     0.1722
A_0     C     0.8174     0.4744     0.6441
A_2     C     0.1248     0.8912     0.4154
A_1     C     0.5946     0.6967     0.6456
A_2     C     0.8585     0.395     0.1707
A_1     C     0.6158     0.9224     0.7382
A_1     C     0.6802     0.2283     0.1273
A_2     C     0.9749     0.4884     0.8955
A_0     C     0.1961     0.6957     0.3774
A_0     C     0.0092     0.996     0.4222
A_3     C     0.5701     0.3338     0.64
A_2     C     0.1364     0.6891     0.7521
A_3     C     0.5825     0.1924     0.0676
A_1     C     0.759     0.7422     0.9051
A_3     C     0.872     0.5999     0.2195
A_2     C     0.5364     0.7345     0.8825
A_1     C     0.7127     0.6078     0.1894
A_3     C     0.3944     0.8787     0.1712
A_0     C     0.7002     0.4076     0.162
A_3     C     0.0191     0.5661     0.332
A_0     C     0.3602     0.1313     0.3539
A_1     C     0.1642     0.6418     0.8929
A_0     C     0.1909     0.414     0.6684
A_1     C     0.1755     0.0911     0.9483
A_1     C     0.6232     0.0093     0.8214
A_1     C     0.6543     0.3591     0.7704
A_1     C     0.544     0.441     0.0339
A_3     C     0.3104     0.848     0.4963
A_0     C     0.2584     0.993     0.856
A_1     C     0.4581     0.8777     0.5467
A_2     C     0.1291     0.6442     0.4123
A_3     C     0.1029     0.9462     0.4677
A_0     C     0.9814     0.4785     0.4788
A_3     C     0.5855     0.119     0.2661
A_2     C     0.2532     0.0663     0.3001
A_0     C     0.7018     0.7713     0.0093
A_0     C     0.7414     0.6093     0.7002
A_1     C     0.3186     0.6202     0.1344
A_3     C     0.6778     0.3101     0.3168
A_2     C     0.0814     0.9119     0.9653
A_0     C     0.5988     0.1036     0.982
A_1     C     0.5757     0.9303     0.5019
A_0     C     0.324     0.9396     0.2471
A_0     C     0.7979     0.4695     0.4412
A_1     C     0.8112     0.9074     0.6763
A_0     C     0.5778     0.4943     0.3905
A_2     C     0.035     0.8635     0.4041
A_3     C     0.5224     0.8844     0.4617
A_1     C     0.0785     0.0148     0.5931
A_3     C     0.1715     0.8618     0.0209
A_3     C     0.4696     0.537     0.5299
A_1     C     0.0868     0.1937     0.8021
A_2     C     0.0189     0.2581     0.6933
A_0     C     0.7096     0.5143     0.2806
A_0     C     0.0443     0.4428     0.7362
A_0     C     0.4947     0.3281     0.2877
A_0     C     0.6157     0.9139     0.3578
A_1     C     0.711     0.4905     0.4324
A_0     C     0.0144     0.5548     0.3541
A_0     C     0.9964     0.0477     0.7576
A_1     C     0.0592     0.652     0.7073
A_2     C     0.9708     0.5386     0.4032
A_1     C     0.5621     0.693     0.9369
A_2     C     0.453     0.4362     0.2042
A_2     C     0.7544     0.3686     0.7778
A_0     C     0.6201     0.0764     0.1569
A_2     C     0.7571     0.0112     0.8597
A_0     C     0.2553     0.9117     0.0262
A_1     C     0.6457     0.1227     0.3827
A_2     C     0.0296     0.0862     0.981
A_0     C     0.5734     0.9993     0.7453
A_3     C     0.9327     0.7552     0.5073
A_0     C     0.3959     0.8151     0.4712
A_1     C     0.817     0.5146     0.2789
A_0     C     0.3314     0.9276     0.8707
A_2     C     0.629     0.4796     0.9281
A_2     C     0.3891     0.9686     0.7431
A_0     C     0.2653     0.7922     0.7327
A_3     C     0.8594     0.4313     0.7058
A_3     C     0.0599     0.9265     0.98
A_2     C     0.9177     0.553     0.7804
A_1     C     0.804     0.8196     0.8583
A_0     C     0.5495     0.8543     0.1885
A_1     C     0.4872     0.345     0.3166
A_1     C     0.7339     0.1818     0.7473
A_3     C     0.8822     0.2386     0.0074
A_0     C     0.9513     0.0858     0.0476
A_2     C     0.1421     0.6794     0.664
A_1     C     0.6022     0.2563     0.3284
A_1     C     0.949     0.9336     0.7721
A_1     C     0.5845     0.8988     0.1032
A_0     C     0.0867     0.6667     0.1075
A_3     C     0.1906     0.091     0.2194
A_0     C     0.2411     0.5549     0.8169
A_1     C     0.6503     0.0627     0.1362
A_3     C     0.1148     0.9403     0.0731
A_1     C     0.2256     0.1757     0.8832
A_1     C     0.0938     0.5811     0.3397
A_1     C     0.9089     0.7701     0.0092
A_1     C     0.7942     0.0991     0.3848
A_2     C     0.6224     0.1195     0.1078
A_2     C     0.592     0.5114     0.7897
A_1     C     0.9886     0.3514     0.042
A_1     C     0.4539     0.4419     0.2796
A_2     C     0.6271     0.739     0.4074
A_3     C     0.0636     0.1046     0.5995
A_1     C     0.5821     0.0432     0.5566
A_3     C     0.3937     0.6166     0.8536
A_0     C     0.0571     0.5044     0.7876
A_1     C     0.8032     0.079     0.0181
A_3     C     0.1596     0.286     0.5965
A_2     C     0.6788     0.119     0.1602
A_1     C     0.3989     0.4755     0.6202
A_1     C     0.1202     0.9156     0.7806
A_0     C     0.885     0.6355     0.7453
A_3     C     0.6106     0.2012     0.4456
A_0     C     0.9988     0.8885     0.4252
A_2     C     0.5946     0.4815     0.5784
A_1     C     0.2852     0.3976     0.5804
A_0     C     0.094     0.7952     0.8917
A_2     C     0.0497     0.6878     0.7579
A_2     C     0.7234     0.0801     0.5458
A_3     C     0.7556     0.1094     0.7053
A_2     C     0.9523     0.1398     0.2982
A_1     C     0.2679     0.7943     0.0985
A_0     C     0.3967     0.5913     0.0783
A_1     C     0.7887     0.815     0.1298
A_0     C     0.0111     0.0281     0.6189
A_0     C     0.1142     0.426     0.9294
A_0     C     0.4757     0.2232     0.8322
A_1     C     0.9831     0.0667     0.8036
A_3     C     0.1027     0.3325     0.1056
A_0     C     0.4448     0.6511     0.1839
A_0     C     0.6527     0.4871     0.8051
A_3     C     0.6519     0.0492     0.2694
A_0     C     0.7589     0.8801     0.0698
A_2     C     0.432     0.3713     0.2675
A_3     C     0.4369     0.8405     0.8546
A_0     C     0.9851     0.6092     0.4369
A_0     C     0.8778     0.9115     0.3314
A_2     C     0.2687     0.0924     0.3183
A_2     C     0.5038     0.2127     0.8298
A_2     C     0.7501     0.3057     0.9723
A_2     C     0.1788     0.541     0.6242
A_2     C     0.8377     0.8504     0.3111
A_0     C     0.5314     0.1593     0.6681
A_3     C     0.8414     0.3757     0.0575
A_0     C     0.5659     0.8427     0.923
A_2     C     0.9078     0.2641     0.3199
A_3     C     0.8718     0.2582     0.1038
A_0     C     0.9583     0.1007     0.6659
A_2     C     0.8695     0.6866     0.3791
A_0     C     0.7828     0.8208     0.5586
A_1     C     0.9117     0.2207     0.9184
A_3     C     0.5855     0.5169     0.3023
A_3     C     0.2824     0.6009     0.5423
A_0     C     0.6416     0.1306     0.9318
A_1     C     0.5784     0.2582     0.1073
A_1     C     0.0295     0.5535     0.7185
A_1     C     0.7811     0.0675     0.4845
A_2     C     0.9698     0.7407     0.285
A_1     C     0.9117     0.1823     0.0122
A_3     C     0.6169     0.1893     0.853
A_3     C     0.7211     0.5332     0.9054
A_0     C     0.4735     0.1933     0.8259
A_1     C     0.9228     0.9621     0.0962
A_1     C     0.0282     0.4138     0.99
