MAT-1

loop_
_symmetry_equiv_pos_as_xyz
  x,y,z
_cell_length_a          37.4006
_cell_length_b          26.4624
_cell_length_c          47.3879
_cell_angle_alpha       90.0000
_cell_angle_beta        90.0000
_cell_angle_gamma       90.0000
loop_
_atom_site_label
_atom_site_type_symbol
_atom_site_fract_x
_atom_site_fract_y
_atom_site_fract_z
A_0     C     0.2072     0.317     0.6926
A_2     C     0.1739     0.9434     0.0617
A_0     C     0.7168     0.2364     0.222
A_2     C     0.0944     0.8695     0.6089
A_3     C     0.0422     0.2877     0.675
A_0     C     0.0714     0.502     0.1224
A_0     C     0.4121     0.1238     0.5457
A_0     C     0.9772     0.0434     0.2184
A_2     C     0.6893     0.4899     0.6695
A_3     C     0.592     0.9585     0.5293
A_1     C     0.321     0.8216     0.5154
A_0     C     0.7829     0.2775     0.2072
A_3     C     0.8291     0.6227     0.8141
A_3     C     0.2821     0.8963     0.8174
A_2     C     0.088     0.9282     0.3823
A_1     C     0.1558     0.1174     0.6693
A_2     C     0.834     0.1334     0.7814
A_3     C     0.6113     0.9242     0.8122
A_0     C     0.3893     0.4314     0.1254
A_1     C     0.1276     0.8889     0.8813
A_1     C     0.3946     0.0626     0.1541
A_3     C     0.1422     0.8786     0.9828
A_3     C     0.7478     0.7146     0.54
A_3     C     0.733     0.3912     0.5784
A_1     C     0.6145     0.2501     0.5081
A_3     C     0.1297     0.0769     0.7496
A_2     C     0.7549     0.917     0.736
A_2     C     0.7901     0.2529     0.9354
A_0     C     0.4568     0.919     0.4098
A_2     C     0.7237     0.1197     0.7447
A_1     C     0.5412     0.1653     0.4192
A_2     C     0.7528     0.2325     0.4658
A_1     C     0.1201     0.6561     0.1577
A_3     C     0.055     0.5924     0.3134
A_3     C     0.2843     0.9145     0.8761
A_0     C     0.2934     0.4537     0.887
A_2     C     0.8126     0.5232     0.0141
A_2     C     0.198     0.7854     0.5567
A_0     C     0.2589     0.8423     0.4479
A_3     C     0.5168     0.1354     0.8439
A_2     C     0.6551     0.2895     0.7472
A_1     C     0.6264     0.5245     0.8661
A_3     C     0.7198     0.1983     0.3352
A_2     C     0.5777     0.6695     0.9704
A_1     C     0.2427     0.0869     0.7726
A_2     C     0.5374     0.1152     0.8237
A_1     C     0.5998     0.3106     0.0072
A_3     C     0.7246     0.2146     0.4858
A_1     C     0.1135     0.8606     0.7822
A_0     C     0.8599     0.8207     0.4237
A_3     C     0.6769     0.8254     0.4686
A_3     C     0.5482     0.6086     0.1913
A_1     C     0.54     0.0505     0.0185
A_0     C     0.1099     0.4849     0.9702
A_1     C     0.7572     0.6988     0.4235
A_3     C     0.0343     0.4308     0.0934
A_1     C     0.2305     0.238     0.0779
A_1     C     0.827     0.1776     0.7585
A_3     C     0.0539     0.8105     0.9145
A_2     C     0.5795     0.001     0.2057
A_3     C     0.8994     0.926     0.123
A_1     C     0.8835     0.3552     0.6582
A_3     C     0.3128     0.2191     0.7139
A_2     C     0.9035     0.6815     0.5476
A_2     C     0.8095     0.5972     0.8977
A_1     C     0.5566     0.9308     0.7894
A_1     C     0.6456     0.6801     0.3698
A_1     C     0.5881     0.9598     0.0195
A_0     C     0.1235     0.4007     0.617
A_1     C     0.352     0.8673     0.5327
A_3     C     0.0401     0.2649     0.7395
A_1     C     0.1617     0.8776     0.4324
A_2     C     0.1469     0.765     0.5036
A_2     C     0.9062     0.0832     0.8407
A_0     C     0.9654     0.5502     0.1262
A_2     C     0.29     0.9179     0.4506
A_2     C     0.8575     0.7188     0.3846
A_2     C     0.2279     0.9246     0.7888
A_2     C     0.1461     0.8476     0.1619
A_1     C     0.2481     0.9411     0.1772
A_3     C     0.7848     0.8133     0.0147
A_1     C     0.5106     0.3816     0.3936
A_0     C     0.6196     0.9457     0.4168
A_1     C     0.4464     0.4191     0.3975
A_2     C     0.8463     0.5065     0.2801
A_2     C     0.9988     0.0072     0.2685
A_3     C     0.7077     0.1697     0.2802
A_0     C     0.4074     0.1958     0.4677
A_0     C     0.9241     0.8517     0.3509
A_3     C     0.9265     0.8165     0.4582
A_0     C     0.2341     0.4578     0.848
A_0     C     0.9944     0.8253     0.137
A_2     C     0.0574     0.9687     0.6268
A_0     C     0.0717     0.6052     0.4445
A_0     C     0.435     0.0179     0.6221
A_3     C     0.1593     0.119     0.2106
A_3     C     0.8286     0.1553     0.9607
A_2     C     0.9193     0.0537     0.1699
A_3     C     0.4647     0.1676     0.2279
A_2     C     0.5608     0.6201     0.0813
A_1     C     0.3177     0.2433     0.518
A_2     C     0.7607     0.1115     0.3775
A_2     C     0.2159     0.9181     0.0228
A_1     C     0.971     0.7795     0.3989
A_0     C     0.493     0.5858     0.9518
A_2     C     0.6841     0.1415     0.2208
A_2     C     0.1431     0.9332     0.7687
A_3     C     0.3287     0.2485     0.7541
A_1     C     0.5     0.613     0.2281
A_2     C     0.3344     0.8549     0.5139
A_1     C     0.1693     0.2257     0.576
A_3     C     0.8841     0.2353     0.739
A_3     C     0.1055     0.5375     0.8409
A_3     C     0.0258     0.0719     0.6474
A_1     C     0.058     0.6073     0.8785
A_1     C     0.2064     0.0533     0.0423
A_2     C     0.5783     0.1425     0.6093
A_2     C     0.7388     0.8971     0.9501
A_3     C     0.0811     0.3202     0.7908
A_2     C     0.2978     0.9415     0.0931
A_1     C     0.2601     0.8696     0.7073
A_0     C     0.4444     0.9476     0.0971
A_0     C     0.1873     0.6938     0.8186
A_1     C     0.3497     0.818     0.1132
A_0     C     0.3195     0.4681     0.731
A_0     C     0.0092     0.9604     0.7979
A_0     C     0.2894     0.534     0.3242
A_2     C     0.2227     0.0535     0.8053
A_2     C     0.8478     0.1888     0.5874
A_3     C     0.5651     0.5015     0.7984
A_3     C     0.527     0.6689     0.9169
A_2     C     0.7439     0.9603     0.4518
A_2     C     0.9333     0.5085     0.7657
A_0     C     0.5723     0.1028     0.9045
A_2     C     0.3051     0.0475     0.6486
A_3     C     0.1417     0.4236     0.9674
A_1     C     0.74     0.6632     0.4544
A_0     C     0.2787     0.0136     0.5258
A_0     C     0.4305     0.4907     0.5362
A_3     C     0.6406     0.6059     0.4978
A_3     C     0.131     0.7637     0.8759
A_1     C     0.8313     0.025     0.2721
A_3     C     0.7669     0.1404     0.8842
A_0     C     0.0531     0.0931     0.0568
A_0     C     0.1757     0.979     0.929
A_2     C     0.6799     0.2166     0.8344
A_1     C     0.2186     0.7675     0.2311
A_1     C     0.2275     0.2307     0.6313
A_2     C     0.1049     0.3011     0.0104
A_1     C     0.5866     0.7832     0.3059
A_0     C     0.9251     0.3876     0.6982
A_0     C     0.2664     0.8607     0.6452
A_1     C     0.3638     0.6426     0.6575
A_0     C     0.0337     0.9989     0.5065
A_0     C     0.3442     0.5567     0.566
A_3     C     0.1556     0.5574     0.6756
A_0     C     0.8077     0.9969     0.1798
A_0     C     0.3387     0.2855     0.6508
A_3     C     0.3479     0.9888     0.3373
A_3     C     0.6714     0.495     0.331
A_3     C     0.2849     0.1796     0.1895
A_0     C     0.23     0.4569     0.4236
A_1     C     0.724     0.6676     0.4171
A_3     C     0.2582     0.1223     0.5614
A_0     C     0.2681     0.2924     0.764
A_1     C     0.1385     0.5576     0.5818
A_3     C     0.5769     0.5232     0.2391
A_2     C     0.0402     0.1351     0.6504
A_3     C     0.1136     0.7835     0.6302
A_3     C     0.6329     0.9896     0.8009
A_0     C     0.2458     0.9872     0.6996
A_1     C     0.5155     0.3541     0.6717
A_1     C     0.4813     0.5784     0.046
A_0     C     0.6888     0.4393     0.9626
A_0     C     0.0292     0.1262     0.9413
A_0     C     0.2879     0.7393     0.3092
A_1     C     0.3581     0.8129     0.0952
A_1     C     0.2718     0.5237     0.7685
A_3     C     0.9349     0.9096     0.1715
A_1     C     0.739     0.5502     0.327
A_3     C     0.3818     0.4516     0.5723
A_3     C     0.8847     0.5445     0.2809
A_1     C     0.5454     0.5193     0.6419
A_0     C     0.6154     0.3985     0.9904
A_3     C     0.6068     0.1096     0.128
A_3     C     0.9072     0.0824     0.9154
A_1     C     0.8638     0.4549     0.1021
A_2     C     0.4501     0.9018     0.9424
A_0     C     0.0587     0.9736     0.1591
A_3     C     0.3806     0.4726     0.6771
A_0     C     0.8552     0.4757     0.1722
A_2     C     0.0229     0.1048     0.9196
A_1     C     0.373     0.286     0.0276
A_3     C     0.318     0.6566     0.4436
A_2     C     0.545     0.7011     0.9018
A_1     C     0.0184     0.2781     0.4727
A_2     C     0.9533     0.9647     0.4298
A_1     C     0.4241     0.0941     0.6928
A_3     C     0.9469     0.6551     0.5344
A_1     C     0.0715     0.6679     0.594
A_0     C     0.1354     0.265     0.1193
A_0     C     0.7948     0.3837     0.0197
A_0     C     0.2403     0.0104     0.1518
A_0     C     0.299     0.2998     0.785
A_1     C     0.3893     0.5239     0.7209
A_0     C     0.1312     0.611     0.3086
A_2     C     0.9736     0.4613     0.7082
A_1     C     0.77     0.2135     0.213
A_2     C     0.5316     0.2966     0.4456
A_3     C     0.5772     0.6065     0.9057
A_3     C     0.0176     0.6055     0.6422
A_3     C     0.2279     0.3705     0.7811
A_1     C     0.5931     0.936     0.0735
A_3     C     0.4608     0.8377     0.2768
A_1     C     0.6643     0.168     0.0418
A_2     C     0.9217     0.8856     0.8416
A_0     C     0.9363     0.3292     0.1699
A_0     C     0.9026     0.4509     0.3014
A_3     C     0.0978     0.8624     0.849
A_3     C     0.0514     0.6069     0.7884
A_2     C     0.1685     0.2983     0.3388
A_1     C     0.5493     0.5825     0.2306
A_0     C     0.0256     0.1363     0.0072
A_0     C     0.3614     0.5502     0.7963
A_3     C     0.0263     0.8419     0.401
A_3     C     0.5138     0.2174     0.7597
A_3     C     0.5728     0.7319     0.3266
A_2     C     0.6597     0.4875     0.1758
A_0     C     0.3999     0.0096     0.5723
A_3     C     0.8753     0.1056     0.3812
A_1     C     0.1805     0.353     0.1949
A_2     C     0.3277     0.9576     0.7612
A_1     C     0.1698     0.2796     0.3782
A_1     C     0.1565     0.5497     0.4773
A_2     C     0.3967     0.2599     0.9743
A_0     C     0.3291     0.964     0.0402
A_3     C     0.0804     0.7098     0.2578
A_2     C     0.2837     0.6547     0.997
A_1     C     0.6229     0.2938     0.1996
A_1     C     0.8696     0.2935     0.9138
A_0     C     0.5673     0.1634     0.7862
A_1     C     0.4761     0.759     0.6137
A_0     C     0.8437     0.2896     0.5577
A_2     C     0.898     0.5951     0.9827
A_1     C     0.4901     0.859     0.6174
A_2     C     0.9207     0.9318     0.3049
A_2     C     0.1677     0.2667     0.0809
A_3     C     0.8636     0.8137     0.0319
A_1     C     0.5222     0.426     0.0615
A_3     C     0.6042     0.6224     0.3564
A_0     C     0.817     0.8053     0.223
A_3     C     0.5409     0.4114     0.5473
A_0     C     0.9752     0.8893     0.5931
A_3     C     0.0733     0.6636     0.6633
A_2     C     0.4315     0.2137     0.4791
A_2     C     0.8963     0.9478     0.0622
A_1     C     0.4346     0.8733     0.4966
A_1     C     0.4937     0.4907     0.0129
A_0     C     0.2177     0.9944     0.2974
A_0     C     0.599     0.7677     0.2764
A_1     C     0.8353     0.3476     0.0752
A_1     C     0.7332     0.1032     0.8231
A_1     C     0.7775     0.0084     0.2015
A_3     C     0.4644     0.6234     0.3627
A_0     C     0.2204     0.0261     0.5878
A_1     C     0.8934     0.0928     0.0003
A_3     C     0.1648     0.9234     0.1551
A_1     C     0.4436     0.0836     0.3836
A_0     C     0.4666     0.2175     0.2049
A_0     C     0.26     0.6383     0.9588
A_3     C     0.0381     0.4305     0.9678
A_3     C     0.2293     0.1494     0.6141
A_3     C     0.8372     0.2304     0.7595
A_3     C     0.7752     0.1494     0.1579
A_2     C     0.0919     0.6953     0.1851
A_2     C     0.6232     0.6971     0.0594
A_2     C     0.1693     0.4623     0.5623
A_3     C     0.7699     0.3433     0.9236
A_3     C     0.4179     0.1088     0.9395
A_0     C     0.1492     0.7128     0.7763
A_2     C     0.8571     0.1725     0.0413
A_0     C     0.2877     0.3966     0.5428
A_2     C     0.1924     0.8087     0.2054
A_0     C     0.4776     0.7868     0.5793
A_0     C     0.3031     0.9344     0.0146
A_3     C     0.6501     0.7892     0.9851
A_0     C     0.5795     0.8039     0.079
A_1     C     0.3401     0.1874     0.6139
A_3     C     0.5865     0.4099     0.6469
A_1     C     0.7381     0.3335     0.926
A_3     C     0.3066     0.9874     0.8092
A_1     C     0.1319     0.5609     0.3527
A_0     C     0.9369     0.1341     0.1791
A_2     C     0.1945     0.4137     0.9601
A_2     C     0.0623     0.1204     0.3868
A_2     C     0.4986     0.4641     0.4011
A_2     C     0.5753     0.9608     0.0435
A_0     C     0.2597     0.3445     0.9884
A_3     C     0.6745     0.8024     0.8337
A_3     C     0.7264     0.6297     0.6631
A_1     C     0.6651     0.6444     0.305
A_1     C     0.37     0.2328     0.0233
A_1     C     0.3441     0.9433     0.5212
A_1     C     0.6013     0.9064     0.4692
A_3     C     0.969     0.2153     0.4785
A_1     C     0.5898     0.4542     0.1696
A_0     C     0.0311     0.1274     0.0266
A_2     C     0.8442     0.3107     0.1616
A_2     C     0.1324     0.4705     0.5846
A_2     C     0.9877     0.6389     0.0913
A_0     C     0.2571     0.8408     0.9733
A_3     C     0.1211     0.2968     0.8564
A_2     C     0.2897     0.1408     0.0084
A_3     C     0.8194     0.5664     0.9719
A_3     C     0.2212     0.8133     0.9289
A_1     C     0.7919     0.679     0.2687
A_3     C     0.2769     0.9592     0.9729
A_0     C     0.6122     0.9901     0.5457
A_2     C     0.8017     0.7848     0.0208
A_0     C     0.6198     0.2744     0.9285
A_2     C     0.7748     0.7703     0.2517
A_2     C     0.0344     0.7195     0.9614
A_2     C     0.1811     0.4557     0.0596
A_2     C     0.1765     0.2641     0.5553
A_2     C     0.7567     0.4679     0.8287
A_0     C     0.7935     0.8111     0.5211
A_3     C     0.032     0.5289     0.405
A_1     C     0.9063     0.5349     0.7549
A_0     C     0.1877     0.224     0.3309
A_3     C     0.1248     0.6836     0.4604
A_3     C     0.2844     0.2519     0.2074
A_1     C     0.6313     0.7448     0.5028
A_2     C     0.4608     0.9233     0.9942
A_1     C     0.2097     0.7402     0.8154
A_0     C     0.1466     0.6159     0.9741
A_1     C     0.6658     0.0788     0.4027
A_3     C     0.9259     0.1945     0.6601
A_2     C     0.6264     0.5898     0.9251
A_2     C     0.0534     0.6398     0.4077
A_0     C     0.3098     0.1268     0.4645
A_1     C     0.694     0.9928     0.921
A_0     C     0.8584     0.2019     0.707
A_3     C     0.6914     0.9439     0.9947
A_0     C     0.483     0.6777     0.6151
A_2     C     0.6897     0.8686     0.2146
A_0     C     0.9871     0.2876     0.5003
A_0     C     0.1573     0.8103     0.2576
A_1     C     0.1813     0.0324     0.5599
A_2     C     0.3933     0.0361     0.2694
A_1     C     0.9839     0.3621     0.4175
A_2     C     0.7657     0.1475     0.0407
A_1     C     0.8398     0.8165     0.407
A_1     C     0.568     0.0597     0.0891
A_3     C     0.55     0.3741     0.3328
A_3     C     0.6069     0.2078     0.6717
A_0     C     0.5305     0.6456     0.5377
A_3     C     0.5319     0.4626     0.1922
A_0     C     0.4649     0.5128     0.2387
A_2     C     0.5855     0.2939     0.6026
A_0     C     0.5756     0.0539     0.1492
A_2     C     0.0858     0.1397     0.8608
A_2     C     0.5767     0.8043     0.9279
A_2     C     0.2601     0.5227     0.3224
A_1     C     0.4804     0.2696     0.5772
A_3     C     0.5675     0.0089     0.5294
A_1     C     0.5197     0.0271     0.7421
A_1     C     0.7668     0.4536     0.301
A_3     C     0.2897     0.1188     0.9382
A_3     C     0.9048     0.0426     0.0562
A_2     C     0.7864     0.1582     0.3737
A_1     C     0.3439     0.7951     0.294
A_3     C     0.1852     0.1639     0.7531
A_3     C     0.8677     0.8841     0.6063
A_1     C     0.0245     0.6391     0.3304
A_3     C     0.3216     0.36     0.712
A_3     C     0.866     0.0118     0.4307
A_1     C     0.4033     0.7814     0.5683
A_1     C     0.282     0.8748     0.2946
A_3     C     0.5006     0.4268     0.6822
A_3     C     0.6783     0.5399     0.7676
A_3     C     0.955     0.0535     0.3864
A_3     C     0.6419     0.1079     0.925
A_1     C     0.53     0.6967     0.814
A_2     C     0.2236     0.4101     0.7342
A_3     C     0.6428     0.2637     0.592
A_1     C     0.1906     0.1109     0.757
A_0     C     0.8476     0.9683     0.9713
A_0     C     0.7816     0.4134     0.3529
A_0     C     0.3925     0.2981     0.4216
A_0     C     0.4263     0.3221     0.9788
A_1     C     0.1493     0.0089     0.1916
A_0     C     0.5765     0.2703     0.3152
A_1     C     0.6165     0.9717     0.8207
A_2     C     0.9592     0.051     0.6795
A_2     C     0.2445     0.8542     0.7488
A_3     C     0.3933     0.7858     0.3821
A_0     C     0.6161     0.0746     0.4065
A_2     C     0.137     0.6109     0.5192
A_2     C     0.6603     0.9892     0.1954
A_3     C     0.8335     0.6762     0.5048
A_2     C     0.2397     0.2191     0.4084
A_2     C     0.9813     0.8334     0.0402
A_3     C     0.2595     0.6908     0.3845
A_3     C     0.6848     0.31     0.281
A_0     C     0.1218     0.8574     0.3726
A_3     C     0.2756     0.5626     0.8324
A_3     C     0.4194     0.4623     0.2564
A_1     C     0.8465     0.8431     0.8584
A_3     C     0.5118     0.5068     0.7441
A_0     C     0.9384     0.8687     0.5174
A_2     C     0.7568     0.2304     0.0903
A_3     C     0.6136     0.8102     0.4459
A_0     C     0.9067     0.1632     0.0454
A_0     C     0.8658     0.5361     0.3099
A_2     C     0.2718     0.4587     0.8034
A_2     C     0.6712     0.9898     0.315
A_1     C     0.0558     0.1814     0.9849
A_2     C     0.4832     0.2861     0.8982
A_1     C     0.0704     0.6433     0.7765
A_2     C     0.0875     0.6732     0.1962
A_3     C     0.4956     0.7318     0.5834
A_0     C     0.7453     0.9773     0.184
A_2     C     0.4924     0.3403     0.7895
A_3     C     0.539     0.8337     0.5693
A_1     C     0.7716     0.378     0.8026
A_0     C     0.1629     0.3011     0.0046
A_3     C     0.4935     0.8768     0.8693
A_2     C     0.4684     0.0586     0.9693
A_1     C     0.4855     0.8946     0.2368
A_2     C     0.0048     0.8579     0.7264
A_3     C     0.197     0.2816     0.5442
A_2     C     0.9523     0.9772     0.5697
A_1     C     0.3613     0.495     0.5594
A_1     C     0.1878     0.7866     0.3824
A_0     C     0.5854     0.9992     0.9479
A_3     C     0.4129     0.1231     0.8141
A_0     C     0.6156     0.9931     0.5667
A_2     C     0.2331     0.867     0.0723
A_1     C     0.2519     0.8949     0.3916
A_2     C     0.3793     0.6525     0.2152
A_2     C     0.6741     0.6938     0.5411
A_1     C     0.3331     0.9399     0.8516
A_2     C     0.1966     0.8136     0.8468
A_3     C     0.3381     0.0305     0.287
A_1     C     0.2165     0.1228     0.6437
A_2     C     0.042     0.9885     0.1227
A_1     C     0.8644     0.8931     0.1193
A_0     C     0.0704     0.8788     0.9206
A_0     C     0.221     0.4434     0.9103
A_0     C     0.4859     0.1774     0.3392
A_0     C     0.3885     0.2061     0.4102
A_0     C     0.3607     0.816     0.3524
A_1     C     0.9389     0.5018     0.6704
A_3     C     0.3366     0.7257     0.5688
A_3     C     0.7331     0.3133     0.6557
A_1     C     0.8621     0.1957     0.5027
A_0     C     0.796     0.8824     0.5454
A_3     C     0.5569     0.3082     0.5152
A_3     C     0.1159     0.8546     0.6146
A_1     C     0.107     0.3985     0.158
A_2     C     0.0859     0.2662     0.6635
A_2     C     0.8618     0.5311     0.0771
A_2     C     0.4094     0.0589     0.5542
A_3     C     0.1366     0.9959     0.8734
A_1     C     0.5675     0.3612     0.3897
A_1     C     0.1605     0.7361     0.5448
A_0     C     0.8747     0.2988     0.3969
A_0     C     0.6927     0.5355     0.552
A_0     C     0.0172     0.1579     0.7449
A_3     C     0.3702     0.7789     0.6481
A_3     C     0.0553     0.6371     0.6347
A_2     C     0.8803     0.3043     0.9107
A_0     C     0.1947     0.5773     0.4721
A_2     C     0.1391     0.2022     0.6359
A_0     C     0.5248     0.5515     0.99
A_1     C     0.8007     0.1723     0.9554
A_2     C     0.0775     0.7697     0.8501
A_0     C     0.1575     0.6896     0.5944
A_2     C     0.1896     0.412     0.6444
A_3     C     0.3512     0.3934     0.1976
A_3     C     0.7316     0.7084     0.3874
A_3     C     0.7542     0.1566     0.4636
A_3     C     0.7406     0.8894     0.8922
A_2     C     0.8666     0.3578     0.0019
A_2     C     0.7521     0.4655     0.6837
A_2     C     0.8909     0.7293     0.0599
A_2     C     0.6621     0.9182     0.4056
A_1     C     0.9048     0.1499     0.6904
A_1     C     0.1239     0.6887     0.048
A_1     C     0.0239     0.7102     0.2949
A_1     C     0.0041     0.2653     0.1975
A_0     C     0.3392     0.3878     0.5484
A_1     C     0.016     0.7613     0.3397
A_2     C     0.8617     0.3086     0.2637
A_1     C     0.6005     0.4168     0.7411
A_0     C     0.6197     0.2     0.4467
A_1     C     0.6356     0.1673     0.6097
A_2     C     0.3033     0.7713     0.8643
A_2     C     0.8534     0.695     0.0844
A_0     C     0.3632     0.136     0.9756
A_1     C     0.7374     0.6493     0.4806
A_2     C     0.5732     0.4461     0.7549
A_1     C     0.8386     0.04     0.189
A_1     C     0.2125     0.3534     0.3111
A_2     C     0.8023     0.4422     0.7351
A_0     C     0.0256     0.7547     0.7945
A_0     C     0.457     0.0521     0.1833
A_3     C     0.0236     0.2353     0.4718
A_0     C     0.6951     0.2903     0.9122
A_1     C     0.1675     0.2368     0.1404
A_0     C     0.4726     0.1428     0.1465
A_3     C     0.8738     0.9657     0.954
A_3     C     0.1623     0.4124     0.0524
A_0     C     0.5091     0.1663     0.9698
A_1     C     0.4387     0.8335     0.5537
A_2     C     0.4998     0.0     0.0716
A_0     C     0.6235     0.2974     0.2548
A_0     C     0.8735     0.2005     0.4713
A_1     C     0.8171     0.1044     0.0656
A_2     C     0.5627     0.869     0.5659
A_1     C     0.6781     0.4425     0.7676
A_1     C     0.2537     0.6373     0.6825
A_1     C     0.9833     0.8626     0.3071
A_3     C     0.0124     0.4747     0.5167
A_2     C     0.9456     0.6722     0.419
A_1     C     0.556     0.9544     0.2447
A_3     C     0.1112     0.3653     0.8767
A_1     C     0.1201     0.9056     0.8362
A_0     C     0.8459     0.1516     0.2876
A_2     C     0.6514     0.0641     0.726
A_2     C     0.7634     0.2887     0.853
A_3     C     0.5105     0.4997     0.8647
A_1     C     0.4634     0.4761     0.1446
A_0     C     0.3162     0.2618     0.7113
A_3     C     0.7083     0.3091     0.4734
A_1     C     0.072     0.9869     0.5934
A_0     C     0.4638     0.5941     0.2968
A_3     C     0.2512     0.4585     0.361
A_0     C     0.4939     0.2846     0.0049
A_2     C     0.9758     0.6427     0.2364
A_0     C     0.8458     0.0592     0.5667
A_3     C     0.3622     0.3194     0.8189
A_1     C     0.9518     0.6271     0.5777
A_0     C     0.395     0.2573     0.6351
A_2     C     0.2489     0.8981     0.5631
A_1     C     0.4552     0.7181     0.4082
A_1     C     0.744     0.7097     0.1813
A_2     C     0.8828     0.8569     0.6436
A_0     C     0.3482     0.8683     0.1603
A_2     C     0.4372     0.8339     0.6394
A_1     C     0.6098     0.0859     0.5974
A_3     C     0.4162     0.1943     0.6782
A_1     C     0.4907     0.3522     0.3643
A_3     C     0.8608     0.7533     0.8691
A_3     C     0.5476     0.3211     0.3017
A_3     C     0.7334     0.1308     0.1116
A_0     C     0.3073     0.473     0.6499
A_0     C     0.125     0.6322     0.5059
A_0     C     0.069     0.3326     0.1775
A_2     C     0.4208     0.4508     0.3853
A_3     C     0.5369     0.5633     0.4519
A_2     C     0.3667     0.504     0.8761
A_3     C     0.0162     0.5895     0.6693
A_0     C     0.8702     0.3928     0.2647
A_3     C     0.3565     0.5034     0.2594
A_3     C     0.9455     0.8038     0.0871
A_0     C     0.6165     0.062     0.0597
A_3     C     0.8219     0.3711     0.6332
A_0     C     0.8601     0.6405     0.7097
A_2     C     0.5438     0.7819     0.9557
A_2     C     0.3506     0.6746     0.9513
A_3     C     0.924     0.8581     0.3231
A_2     C     0.6249     0.2033     0.6183
A_1     C     0.5442     0.5443     0.898
A_1     C     0.5499     0.9704     0.7793
A_0     C     0.2272     0.9286     0.0055
A_0     C     0.7188     0.3953     0.7602
A_2     C     0.8485     0.1851     0.39
A_2     C     0.2357     0.013     0.2467
A_3     C     0.9112     0.1582     0.5732
A_0     C     0.9339     0.9363     0.537
A_3     C     0.0884     0.8426     0.6276
A_0     C     0.7371     0.626     0.2076
A_1     C     0.6875     0.0045     0.4091
A_3     C     0.1358     0.3998     0.4356
A_2     C     0.774     0.6483     0.7091
A_3     C     0.2041     0.1426     0.6753
A_1     C     0.0417     0.4309     0.9715
A_2     C     0.2682     0.4345     0.4226
A_3     C     0.8     0.0981     0.3104
A_2     C     0.8359     0.5233     0.8216
A_0     C     0.9167     0.1132     0.1031
A_1     C     0.5969     0.6631     0.9574
A_3     C     0.8827     0.0465     0.0325
A_1     C     0.3226     0.2092     0.2269
A_3     C     0.4398     0.9749     0.7671
A_1     C     0.4252     0.5639     0.0683
A_1     C     0.9803     0.1119     0.6287
A_3     C     0.5064     0.8083     0.5453
A_3     C     0.907     0.9148     0.9952
A_1     C     0.8487     0.0155     0.1148
A_3     C     0.9643     0.9376     0.2434
A_2     C     0.4525     0.549     0.9719
A_3     C     0.9894     0.7241     0.4269
A_2     C     0.946     0.1061     0.4407
A_0     C     0.1204     0.9675     0.3974
A_2     C     0.3031     0.7885     0.6231
A_2     C     0.3869     0.2748     0.0946
A_1     C     0.8848     0.267     0.5119
A_2     C     0.3347     0.5082     0.5606
A_0     C     0.9536     0.8436     0.9379
A_3     C     0.7188     0.3381     0.6467
A_1     C     0.9799     0.0831     0.4746
A_0     C     0.3903     0.4565     0.1193
A_0     C     0.7984     0.586     0.4987
A_1     C     0.3504     0.9555     0.8871
A_2     C     0.5382     0.5666     0.5058
A_3     C     0.3917     0.4305     0.4197
A_2     C     0.9038     0.5725     0.2555
A_1     C     0.6739     0.3637     0.4236
A_3     C     0.2818     0.2673     0.9106
A_2     C     0.9026     0.2823     0.5705
A_2     C     0.9099     0.9093     0.9087
A_1     C     0.5076     0.7358     0.2349
A_0     C     0.2924     0.8569     0.4382
A_3     C     0.7075     0.0602     0.8011
A_1     C     0.4809     0.1273     0.5854
A_3     C     0.4911     0.5004     0.0023
A_2     C     0.8691     0.9997     0.7955
A_1     C     0.7973     0.2525     0.2171
A_3     C     0.9302     0.312     0.8097
A_1     C     0.2843     0.064     0.7713
A_0     C     0.9995     0.3223     0.4845
A_3     C     0.7995     0.5619     0.0354
A_0     C     0.3599     0.9956     0.8969
A_3     C     0.6052     0.3034     0.4404
A_1     C     0.5118     0.3941     0.8749
A_2     C     0.6252     0.5688     0.7163
A_2     C     0.804     0.0374     0.0321
A_0     C     0.4753     0.0129     0.4992
A_1     C     0.9404     0.9154     0.4177
A_0     C     0.9822     0.5819     0.3943
A_0     C     0.247     0.1113     0.1168
A_3     C     0.443     0.3448     0.0144
A_2     C     0.4813     0.1319     0.23
A_3     C     0.8397     0.4424     0.3105
A_2     C     0.05     0.297     0.2309
A_0     C     0.5575     0.66     0.1206
A_0     C     0.8044     0.7026     0.751
A_0     C     0.6028     0.3165     0.2159
A_3     C     0.9505     0.8666     0.3034
A_2     C     0.1968     0.3888     0.8418
A_2     C     0.6105     0.5305     0.6116
A_1     C     0.6238     0.8798     0.1859
A_2     C     0.5962     0.2528     0.3468
A_0     C     0.0434     0.5433     0.9612
A_3     C     0.3239     0.6114     0.4835
A_3     C     0.3346     0.7594     0.0833
A_1     C     0.4768     0.4062     0.85
A_1     C     0.4236     0.815     0.6389
A_1     C     0.2223     0.8346     0.4775
A_2     C     0.8647     0.8538     0.4009
A_0     C     0.2025     0.243     0.0435
A_3     C     0.711     0.3146     0.9376
A_2     C     0.02     0.7944     0.8606
A_1     C     0.7879     0.3079     0.5903
A_2     C     0.4672     0.422     0.4541
A_0     C     0.2138     0.8131     0.0248
A_2     C     0.5774     0.1585     0.7645
A_2     C     0.7414     0.9547     0.276
A_2     C     0.9849     0.5075     0.5769
A_3     C     0.2166     0.4687     0.5733
A_2     C     0.7818     0.2289     0.2927
A_3     C     0.384     0.3925     0.346
A_2     C     0.6887     0.4468     0.2779
A_1     C     0.4721     0.3048     0.6987
A_3     C     0.2889     0.6891     0.1492
A_1     C     0.8229     0.1615     0.1677
A_0     C     0.1747     0.7017     0.3109
A_3     C     0.8273     0.7545     0.0048
A_3     C     0.4653     0.7584     0.3257
A_0     C     0.4694     0.0162     0.6604
A_2     C     0.2618     0.9364     0.7502
A_0     C     0.1929     0.3737     0.5905
A_1     C     0.1265     0.2333     0.5593
A_3     C     0.3094     0.2607     0.4346
A_3     C     0.8041     0.04     0.2007
A_3     C     0.5293     0.3709     0.9492
A_0     C     0.5243     0.8323     0.253
A_1     C     0.366     0.1554     0.9726
A_3     C     0.7388     0.7604     0.492
A_1     C     0.3183     0.9967     0.8707
A_0     C     0.0174     0.3637     0.1216
A_3     C     0.4446     0.3069     0.3494
A_3     C     0.203     0.1739     0.3326
A_3     C     0.0161     0.3874     0.2734
A_3     C     0.168     0.4514     0.792
A_2     C     0.1219     0.6505     0.8497
A_0     C     0.329     0.3868     0.6981
A_2     C     0.6946     0.2853     0.7343
A_2     C     0.6659     0.6374     0.2829
A_3     C     0.5412     0.1654     0.6978
A_0     C     0.6606     0.2479     0.7923
A_3     C     0.9557     0.9683     0.0023
A_1     C     0.2865     0.9535     0.2761
A_2     C     0.5656     0.3979     0.6551
A_1     C     0.3087     0.2162     0.5343
A_2     C     0.7768     0.9425     0.0696
A_1     C     0.1472     0.9611     0.9361
A_1     C     0.4451     0.2199     0.5092
A_3     C     0.0536     0.5699     0.6317
A_0     C     0.9609     0.2162     0.5749
A_3     C     0.0106     0.5088     0.4675
A_2     C     0.0664     0.6153     0.9433
A_2     C     0.2184     0.0775     0.1405
A_3     C     0.4583     0.3689     0.1949
A_1     C     0.0791     0.8679     0.022
A_3     C     0.2716     0.2685     0.5033
A_2     C     0.9835     0.9324     0.1859
A_0     C     0.6252     0.5364     0.3078
A_3     C     0.2166     0.645     0.7223
A_1     C     0.5543     0.6003     0.4769
A_1     C     0.5775     0.0454     0.8987
A_3     C     0.8962     0.1139     0.8083
A_2     C     0.0926     0.8633     0.5155
A_1     C     0.6362     0.5658     0.6167
A_2     C     0.8474     0.4905     0.0714
A_2     C     0.3166     0.7445     0.6731
A_3     C     0.5943     0.7663     0.7538
A_2     C     0.2018     0.2993     0.6589
A_0     C     0.58     0.1706     0.2234
A_0     C     0.329     0.0115     0.7802
A_2     C     0.6108     0.0685     0.6843
A_3     C     0.3421     0.366     0.2223
A_0     C     0.2737     0.7157     0.2942
A_1     C     0.2049     0.3059     0.8309
A_3     C     0.202     0.7265     0.9559
A_2     C     0.6388     0.206     0.1153
A_2     C     0.0836     0.5273     0.9974
A_2     C     0.487     0.9405     0.7275
A_3     C     0.5622     0.7809     0.4135
A_3     C     0.9941     0.0796     0.4974
A_0     C     0.6047     0.992     0.6189
A_3     C     0.574     0.3482     0.3941
A_0     C     0.808     0.8202     0.3639
A_3     C     0.7394     0.5915     0.2603
A_1     C     0.4193     0.5304     0.255
A_2     C     0.7314     0.5682     0.2292
A_1     C     0.5925     0.9177     0.3405
A_0     C     0.4117     0.0069     0.059
A_3     C     0.9114     0.4523     0.7049
A_0     C     0.1448     0.0162     0.0727
A_1     C     0.3304     0.4822     0.2771
A_3     C     0.9835     0.8839     0.8615
A_2     C     0.4215     0.0437     0.267
A_2     C     0.1338     0.3761     0.4676
A_1     C     0.6384     0.8772     0.0007
A_0     C     0.4026     0.8635     0.1834
A_1     C     0.587     0.4896     0.3575
A_1     C     0.3776     0.8812     0.0279
A_2     C     0.0914     0.3491     0.9179
A_1     C     0.3106     0.1327     0.0404
A_3     C     0.4799     0.3997     0.3704
A_1     C     0.0957     0.1705     0.045
A_0     C     0.253     0.6302     0.1461
A_3     C     0.5063     0.0025     0.3363
A_0     C     0.7146     0.1963     0.1901
A_1     C     0.193     0.3804     0.0973
A_0     C     0.1571     0.6915     0.0193
A_3     C     0.6989     0.1473     0.4323
A_0     C     0.2466     0.3416     0.2581
A_3     C     0.2301     0.1316     0.1406
A_3     C     0.5379     0.7389     0.7417
A_3     C     0.3975     0.452     0.4477
A_0     C     0.758     0.8169     0.0691
A_0     C     0.5902     0.3004     0.6082
A_1     C     0.2176     0.8597     0.1221
A_3     C     0.9539     0.9997     0.8621
A_3     C     0.4559     0.8314     0.9028
A_1     C     0.3622     0.2636     0.7371
A_1     C     0.6721     0.5979     0.2932
A_3     C     0.7141     0.1528     0.4855
A_3     C     0.841     0.0324     0.2131
A_1     C     0.6031     0.5631     0.9329
A_0     C     0.6119     0.8896     0.484
A_0     C     0.7168     0.4349     0.0902
A_3     C     0.1233     0.6068     0.509
A_0     C     0.7511     0.4429     0.9808
A_3     C     0.4019     0.2795     0.3077
A_2     C     0.2616     0.6963     0.3727
A_2     C     0.2139     0.4591     0.7992
A_2     C     0.308     0.89     0.7558
A_0     C     0.2453     0.9757     0.9529
A_2     C     0.1054     0.444     0.0192
A_0     C     0.2345     0.7639     0.823
A_1     C     0.0928     0.2517     0.5063
A_3     C     0.7556     0.4404     0.6827
A_2     C     0.1838     0.8364     0.6348
A_1     C     0.755     0.2917     0.704
A_0     C     0.4003     0.8305     0.3911
A_2     C     0.1219     0.8844     0.0385
A_1     C     0.8488     0.1653     0.4019
A_0     C     0.7362     0.1149     0.4732
A_0     C     0.8802     0.6891     0.7266
A_0     C     0.4602     0.1878     0.2228
A_0     C     0.2384     0.5956     0.5815
A_3     C     0.3591     0.9165     0.9906
A_1     C     0.1304     0.4566     0.0031
A_1     C     0.1609     0.817     0.5448
A_0     C     0.7359     0.7401     0.293
A_2     C     0.4043     0.6152     0.6515
A_2     C     0.2395     0.2192     0.9799
A_3     C     0.4721     0.1239     0.0748
A_2     C     0.8257     0.4469     0.0951
A_1     C     0.8943     0.3419     0.8419
A_2     C     0.2338     0.9619     0.1127
A_0     C     0.8224     0.0793     0.657
A_1     C     0.7864     0.557     0.7225
A_0     C     0.1427     0.0201     0.9866
A_1     C     0.8945     0.2463     0.7922
A_3     C     0.0547     0.6641     0.1553
A_0     C     0.107     0.4602     0.8757
A_3     C     0.9543     0.4202     0.3461
A_3     C     0.5321     0.6481     0.816
A_0     C     0.5668     0.2221     0.7929
A_0     C     0.2792     0.9578     0.6917
A_3     C     0.8404     0.2542     0.694
A_2     C     0.2885     0.9717     0.1779
A_1     C     0.7099     0.3799     0.3801
A_0     C     0.18     0.9069     0.5994
A_0     C     0.459     0.0045     0.6936
A_3     C     0.9705     0.478     0.3882
A_2     C     0.0632     0.6317     0.8639
A_0     C     0.4713     0.6683     0.8259
A_3     C     0.137     0.0194     0.9093
A_1     C     0.7705     0.124     0.6152
A_1     C     0.8234     0.26     0.0549
A_1     C     0.041     0.3231     0.7073
A_1     C     0.9648     0.8205     0.1351
A_2     C     0.8024     0.1583     0.5219
A_3     C     0.1608     0.0474     0.229
A_1     C     0.0521     0.8847     0.7235
A_0     C     0.2144     0.1867     0.1762
A_1     C     0.1875     0.9883     0.3695
A_0     C     0.0032     0.8925     0.1841
A_0     C     0.8527     0.8907     0.3596
A_2     C     0.6341     0.174     0.0623
A_3     C     0.9294     0.4664     0.5214
A_3     C     0.15     0.8233     0.769
A_2     C     0.9245     0.6176     0.9578
A_2     C     0.8909     0.6642     0.1747
A_2     C     0.3032     0.7637     0.4978
A_1     C     0.2199     0.2918     0.7963
A_0     C     0.0914     0.0975     0.9284
A_1     C     0.4362     0.5127     0.0438
A_2     C     0.0007     0.9125     0.8755
A_1     C     0.9802     0.6577     0.4312
A_2     C     0.7357     0.502     0.2873
A_1     C     0.83     0.5015     0.1816
A_2     C     0.7892     0.528     0.2926
A_3     C     0.7513     0.9805     0.0201
A_1     C     0.5513     0.1097     0.4178
A_3     C     0.2175     0.2993     0.7185
A_0     C     0.1555     0.014     0.5782
A_0     C     0.8916     0.4373     0.3678
A_3     C     0.3573     0.9709     0.4868
A_2     C     0.104     0.5531     0.0305
A_3     C     0.6848     0.1225     0.8709
A_1     C     0.4064     0.9633     0.3066
A_1     C     0.7938     0.2533     0.1791
A_0     C     0.8927     0.0609     0.4111
A_1     C     0.7769     0.0561     0.3161
A_1     C     0.8035     0.2718     0.5982
A_3     C     0.602     0.049     0.581
A_1     C     0.1398     0.5246     0.1859
A_2     C     0.0287     0.1784     0.2511
A_2     C     0.7926     0.2052     0.3786
A_1     C     0.2549     0.1678     0.3974
A_0     C     0.2389     0.7467     0.8586
A_3     C     0.0208     0.4436     0.1614
A_3     C     0.8853     0.9849     0.6403
A_1     C     0.5044     0.2999     0.1639
A_3     C     0.4089     0.3276     0.5461
A_2     C     0.8137     0.1943     0.1693
A_3     C     0.6802     0.3192     0.8275
A_3     C     0.6008     0.4917     0.3748
A_0     C     0.9896     0.271     0.0669
A_1     C     0.3568     0.9547     0.9924
A_2     C     0.6009     0.6074     0.9008
A_1     C     0.7869     0.5955     0.7591
A_2     C     0.4471     0.775     0.4398
A_1     C     0.1876     0.4145     0.6552
A_1     C     0.6065     0.3869     0.9565
A_1     C     0.1156     0.4752     0.4756
A_2     C     0.0142     0.0185     0.4177
A_0     C     0.4614     0.5807     0.5156
A_3     C     0.7869     0.9597     0.8333
A_0     C     0.6923     0.3964     0.8521
A_0     C     0.2518     0.0936     0.2012
A_0     C     0.5697     0.4228     0.4278
A_1     C     0.3729     0.8287     0.9673
A_0     C     0.6055     0.6226     0.2194
A_3     C     0.6549     0.1997     0.2043
A_1     C     0.0058     0.6508     0.0966
A_3     C     0.3183     0.3996     0.4684
A_3     C     0.3228     0.5457     0.338
A_2     C     0.0854     0.611     0.6276
A_0     C     0.6673     0.8454     0.0437
A_0     C     0.1776     0.5307     0.6445
A_2     C     0.2217     0.7489     0.4484
A_3     C     0.1019     0.4026     0.6077
A_0     C     0.6399     0.5114     0.0551
A_1     C     0.4043     0.5391     0.761
A_3     C     0.2968     0.603     0.6509
A_1     C     0.1337     0.0297     0.7509
A_1     C     0.1029     0.7776     0.5346
A_1     C     0.48     0.0408     0.7733
A_3     C     0.5792     0.2027     0.4724
A_2     C     0.8545     0.2153     0.8555
A_0     C     0.5411     0.2436     0.4389
A_1     C     0.3364     0.5478     0.8836
A_2     C     0.6019     0.9877     0.5516
A_1     C     0.4002     0.8232     0.7191
A_0     C     0.8365     0.0226     0.3829
A_1     C     0.5801     0.081     0.1652
A_2     C     0.2666     0.0456     0.8137
A_3     C     0.384     0.0229     0.3409
A_3     C     0.8882     0.9214     0.7129
A_2     C     0.3425     0.1739     0.5845
A_2     C     0.7822     0.8577     0.0776
A_1     C     0.3999     0.1202     0.2228
A_2     C     0.4683     0.0947     0.5161
A_2     C     0.8941     0.3453     0.6809
A_1     C     0.8136     0.9704     0.607
A_1     C     0.0583     0.2184     0.7727
A_0     C     0.8299     0.5605     0.3071
A_3     C     0.2341     0.8878     0.1417
A_3     C     0.2765     0.8438     0.057
A_2     C     0.3915     0.0323     0.9863
A_1     C     0.6047     0.6835     0.7451
A_3     C     0.5177     0.5099     0.12
A_3     C     0.8245     0.191     0.8741
A_1     C     0.895     0.1347     0.9306
A_1     C     0.5241     0.6944     0.5356
A_3     C     0.403     0.4629     0.6817
A_2     C     0.0704     0.2466     0.035
A_0     C     0.2731     0.0296     0.6617
A_0     C     0.9869     0.7965     0.1275
A_0     C     0.2412     0.7348     0.2813
A_0     C     0.7743     0.3075     0.2727
A_0     C     0.9732     0.3307     0.2124
A_3     C     0.9486     0.4737     0.9668
A_2     C     0.6072     0.7692     0.5131
A_1     C     0.8791     0.1623     0.6186
A_0     C     0.1508     0.8404     0.5011
A_0     C     0.8205     0.0071     0.5825
A_3     C     0.0142     0.5217     0.0124
A_2     C     0.5629     0.91     0.7061
A_1     C     0.64     0.0619     0.3872
A_1     C     0.6799     0.7126     0.6882
A_1     C     0.504     0.3218     0.0044
A_2     C     0.382     0.1553     0.5296
A_3     C     0.4935     0.5007     0.9371
A_1     C     0.8057     0.4907     0.9383
A_0     C     0.3474     0.0633     0.8727
A_2     C     0.9564     0.2317     0.7837
A_2     C     0.5819     0.9677     0.0136
A_1     C     0.7582     0.3506     0.3663
A_2     C     0.5304     0.0396     0.0635
A_2     C     0.754     0.5147     0.8979
A_3     C     0.028     0.2138     0.4037
A_3     C     0.3388     0.6943     0.3725
A_1     C     0.8242     0.9692     0.5175
A_2     C     0.175     0.2993     0.025
A_3     C     0.3415     0.8015     0.9726
A_2     C     0.1764     0.4693     0.4821
A_1     C     0.6807     0.7904     0.8868
A_2     C     0.1634     0.506     0.6961
A_2     C     0.7789     0.0002     0.9725
A_2     C     0.5331     0.1289     0.2055
A_2     C     0.1444     0.827     0.9801
A_2     C     0.2823     0.14     0.4418
A_0     C     0.9074     0.4478     0.9711
A_0     C     0.0838     0.3201     0.7818
A_1     C     0.9738     0.6889     0.5542
A_1     C     0.3783     0.4978     0.2064
A_1     C     0.733     0.7975     0.3804
A_1     C     0.0812     0.7107     0.7474
A_0     C     0.9317     0.6652     0.9041
A_1     C     0.5009     0.3971     0.6037
A_2     C     0.7921     0.2963     0.5206
A_3     C     0.7113     0.0149     0.1741
A_1     C     0.083     0.4082     0.2213
A_3     C     0.4826     0.6382     0.3222
A_3     C     0.9122     0.1735     0.7418
A_2     C     0.9864     0.1471     0.1305
A_2     C     0.6422     0.1267     0.5041
A_3     C     0.7508     0.3586     0.5613
A_3     C     0.5764     0.5133     0.0945
A_0     C     0.1799     0.8761     0.3139
A_0     C     0.7624     0.3863     0.7284
A_3     C     0.1064     0.7968     0.8964
A_0     C     0.5588     0.8819     0.5156
A_3     C     0.3814     0.5365     0.7689
A_0     C     0.8985     0.2442     0.6106
A_1     C     0.5065     0.8874     0.2202
A_1     C     0.2708     0.2967     0.0484
A_0     C     0.5905     0.9994     0.8543
A_2     C     0.3125     0.862     0.7184
A_3     C     0.655     0.0375     0.3307
A_3     C     0.9458     0.2997     0.2918
A_1     C     0.6933     0.565     0.8695
A_2     C     0.9398     0.7462     0.0892
A_1     C     0.6415     0.2815     0.2597
A_3     C     0.131     0.9651     0.1437
A_2     C     0.1484     0.0729     0.6552
A_3     C     0.0166     0.8839     0.1418
A_2     C     0.4521     0.1211     0.3366
A_1     C     0.7209     0.6773     0.8158
A_2     C     0.5416     0.6617     0.3773
A_0     C     0.4757     0.7698     0.1791
A_1     C     0.1677     0.1559     0.8264
A_0     C     0.7394     0.5283     0.1645
A_0     C     0.1757     0.376     0.9008
A_2     C     0.8099     0.5335     0.2413
A_0     C     0.3714     0.8842     0.2756
A_0     C     0.7317     0.743     0.5064
A_3     C     0.7397     0.3454     0.837
A_2     C     0.8329     0.8814     0.0275
A_3     C     0.7352     0.1212     0.1865
A_2     C     0.9709     0.9053     0.5056
A_3     C     0.9159     0.7356     0.9595
A_0     C     0.3968     0.7536     0.2807
A_0     C     0.1657     0.4693     0.9011
A_2     C     0.0646     0.3484     0.7503
A_0     C     0.9057     0.5719     0.0312
A_1     C     0.6205     0.2011     0.1947
A_3     C     0.0888     0.6493     0.7975
A_1     C     0.5345     0.9542     0.4595
A_0     C     0.6056     0.2211     0.8672
A_3     C     0.3429     0.7674     0.8898
A_1     C     0.0358     0.0633     0.6177
A_2     C     0.2824     0.15     0.7946
A_1     C     0.5344     0.0247     0.7569
A_1     C     0.6406     0.8185     0.6335
A_2     C     0.3627     0.6368     0.9934
A_0     C     0.5198     0.152     0.0376
A_3     C     0.116     0.7076     0.3046
A_0     C     0.0895     0.0365     0.6159
A_0     C     0.4551     0.5063     0.6987
A_2     C     0.7027     0.6902     0.2135
A_2     C     0.6108     0.4418     0.1653
A_0     C     0.5963     0.4143     0.227
A_2     C     0.5913     0.6522     0.7148
A_1     C     0.4771     0.2352     0.6399
A_1     C     0.0905     0.344     0.0283
A_1     C     0.895     0.1183     0.5733
A_1     C     0.4874     0.2299     0.1355
A_3     C     0.9398     0.6208     0.7689
A_3     C     0.0587     0.7038     0.1147
A_1     C     0.5362     0.9993     0.2852
A_0     C     0.307     0.4488     0.0284
A_1     C     0.8149     0.2182     0.1379
A_0     C     0.066     0.8009     0.8631
A_0     C     0.5713     0.1043     0.2613
A_1     C     0.501     0.5073     0.6726
A_1     C     0.6723     0.5352     0.3836
A_0     C     0.7471     0.5104     0.6001
A_1     C     0.0662     0.1222     0.8836
A_3     C     0.0556     0.7255     0.34
A_3     C     0.2177     0.0715     0.247
A_1     C     0.6673     0.1087     0.8541
A_0     C     0.2327     0.0305     0.9545
A_3     C     0.5371     0.7849     0.0661
A_2     C     0.5471     0.2515     0.8234
A_3     C     0.3475     0.6739     0.5962
A_0     C     0.2098     0.7352     0.4095
A_1     C     0.0608     0.5265     0.4256
A_3     C     0.1606     0.4032     0.8461
A_1     C     0.2284     0.1588     0.1407
A_2     C     0.6259     0.9087     0.7775
A_1     C     0.8839     0.4029     0.9789
A_0     C     0.7928     0.6946     0.9287
A_0     C     0.3512     0.3733     0.529
A_1     C     0.7527     0.6168     0.0975
A_0     C     0.8176     0.3172     0.9389
A_2     C     0.8506     0.967     0.2287
A_2     C     0.9751     0.0024     0.0365
A_2     C     0.8113     0.1519     0.1681
A_3     C     0.8456     0.057     0.5024
A_1     C     0.3575     0.4683     0.9476
A_2     C     0.6104     0.8572     0.857
A_0     C     0.3922     0.5315     0.3502
A_2     C     0.8751     0.3123     0.911
A_3     C     0.0479     0.2044     0.6292
A_3     C     0.1539     0.4756     0.234
A_2     C     0.3116     0.4874     0.1696
A_0     C     0.2619     0.4497     0.408
A_0     C     0.4003     0.7811     0.4117
A_2     C     0.9785     0.6766     0.2992
A_0     C     0.3993     0.684     0.6436
A_2     C     0.0823     0.6818     0.036
A_3     C     0.2627     0.0664     0.6259
A_0     C     0.266     0.1571     0.8324
A_3     C     0.0038     0.0708     0.8049
A_0     C     0.8855     0.2845     0.4077
A_3     C     0.5335     0.5097     0.4655
A_3     C     0.3398     0.3518     0.5721
A_2     C     0.0676     0.0157     0.4397
A_3     C     0.6404     0.942     0.8653
A_0     C     0.139     0.8002     0.8203
A_1     C     0.9662     0.4703     0.5685
A_0     C     0.9906     0.904     0.8044
A_3     C     0.7113     0.5982     0.9348
A_3     C     0.3089     0.7689     0.6945
A_0     C     0.5974     0.6189     0.3428
A_2     C     0.3003     0.9548     0.0826
A_0     C     0.2411     0.9273     0.7887
A_2     C     0.232     0.1347     0.684
A_1     C     0.9182     0.3327     0.3554
A_0     C     0.75     0.811     0.7274
A_2     C     0.4494     0.8724     0.865
A_3     C     0.8104     0.0171     0.4784
A_3     C     0.9251     0.154     0.8154
A_1     C     0.5966     0.2029     0.4882
A_0     C     0.342     0.6873     0.846
A_1     C     0.935     0.0304     0.1998
A_3     C     0.7805     0.5168     0.5199
A_2     C     0.1642     0.3629     0.8797
A_2     C     0.8208     0.3044     0.8474
A_0     C     0.6228     0.6244     0.5923
A_1     C     0.8232     0.3368     0.5897
A_0     C     0.9651     0.9033     0.3256
A_1     C     0.9788     0.38     0.3775
A_3     C     0.0288     0.8698     0.9381
A_1     C     0.303     0.05     0.5653
A_1     C     0.8503     0.9126     0.6505
A_1     C     0.7406     0.4386     0.1664
A_3     C     0.958     0.1652     0.5253
A_0     C     0.4265     0.8854     0.5571
A_0     C     0.1245     0.738     0.3548
A_0     C     0.0705     0.4051     0.3504
A_0     C     0.7382     0.354     0.9643
A_1     C     0.5894     0.2496     0.6045
A_1     C     0.4935     0.5206     0.4542
A_2     C     0.5341     0.2388     0.378
A_1     C     0.2265     0.0052     0.2594
A_3     C     0.4839     0.6068     0.154
A_1     C     0.8312     0.762     0.8294
A_3     C     0.0435     0.3606     0.5815
A_1     C     0.4146     0.4914     0.2475
A_3     C     0.5898     0.5004     0.1045
A_1     C     0.6563     0.3879     0.7556
A_2     C     0.952     0.0158     0.4334
A_3     C     0.5333     0.5347     0.3139
A_0     C     0.4643     0.8537     0.0142
A_0     C     0.1875     0.0777     0.3506
A_1     C     0.9617     0.0201     0.9141
A_2     C     0.3491     0.8422     0.1874
A_0     C     0.2598     0.856     0.8127
A_2     C     0.9064     0.8882     0.7307
A_2     C     0.7126     0.3392     0.026
A_1     C     0.3366     0.5218     0.2679
A_3     C     0.0396     0.2526     0.4405
A_0     C     0.649     0.7509     0.4783
A_1     C     0.3203     0.2259     0.5075
A_2     C     0.0752     0.0793     0.5729
A_0     C     0.0922     0.2707     0.1447
A_0     C     0.0704     0.9708     0.5926
A_1     C     0.3813     0.4331     0.5083
A_0     C     0.1057     0.0646     0.3504
A_1     C     0.1507     0.0202     0.7152
A_1     C     0.6982     0.6089     0.2548
A_3     C     0.012     0.1605     0.345
A_1     C     0.3194     0.9792     0.8387
A_1     C     0.5365     0.3434     0.864
A_3     C     0.4207     0.436     0.4614
A_1     C     0.6484     0.6804     0.1131
A_0     C     0.4719     0.4645     0.7768
A_2     C     0.7404     0.9835     0.7985
A_0     C     0.5658     0.0447     0.9671
A_3     C     0.3316     0.6604     0.659
A_0     C     0.2399     0.0451     0.0448
A_0     C     0.2894     0.9674     0.7744
A_2     C     0.1935     0.6491     0.2865
A_1     C     0.1333     0.8504     0.1439
A_2     C     0.4121     0.5001     0.95
A_2     C     0.8543     0.769     0.3427
A_2     C     0.4076     0.5254     0.0916
A_0     C     0.1204     0.4201     0.9458
A_3     C     0.25     0.5667     0.7386
A_1     C     0.4461     0.1813     0.5147
A_1     C     0.776     0.4644     0.0926
A_0     C     0.119     0.5051     0.8011
A_2     C     0.4122     0.1099     0.9949
A_0     C     0.6992     0.7237     0.8038
A_1     C     0.6308     0.9486     0.0594
A_1     C     0.3108     0.5251     0.5695
A_3     C     0.2103     0.7972     0.8416
A_1     C     0.1555     0.1262     0.5132
A_1     C     0.6679     0.6326     0.0228
A_3     C     0.5953     0.5206     0.576
A_3     C     0.4152     0.8407     0.0547
A_0     C     0.23     0.4129     0.789
A_0     C     0.7755     0.6563     0.0467
A_2     C     0.3591     0.0104     0.2038
A_1     C     0.7206     0.5327     0.4881
A_2     C     0.5395     0.4713     0.0004
A_0     C     0.3505     0.34     0.6886
A_3     C     0.6697     0.9136     0.8522
A_2     C     0.1983     0.403     0.4784
A_3     C     0.637     0.3594     0.3632
A_1     C     0.8936     0.5928     0.2334
A_1     C     0.8111     0.8     0.6744
A_1     C     0.3501     0.7532     0.1986
A_3     C     0.234     0.0868     0.6329
A_2     C     0.793     0.4712     0.2907
A_3     C     0.9274     0.0669     0.0578
A_3     C     0.5334     0.5194     0.4618
A_2     C     0.1435     0.6354     0.173
A_0     C     0.6497     0.4045     0.3527
A_0     C     0.5699     0.3435     0.5343
A_0     C     0.8362     0.4433     0.0772
A_2     C     0.2032     0.9348     0.4644
A_2     C     0.1431     0.6806     0.4016
A_3     C     0.8569     0.5959     0.6586
A_0     C     0.6781     0.6344     0.105
A_2     C     0.1577     0.1036     0.8012
A_2     C     0.2286     0.6579     0.6103
A_3     C     0.1287     0.2381     0.8867
A_0     C     0.1521     0.187     0.8277
A_2     C     0.1295     0.4487     0.695
A_2     C     0.2076     0.2429     0.0093
A_1     C     0.1046     0.3969     0.3889
A_1     C     0.0434     0.1644     0.8146
A_3     C     0.2487     0.1465     0.2873
A_3     C     0.2497     0.7865     0.5267
A_0     C     0.2241     0.9307     0.9909
A_2     C     0.4612     0.1351     0.1234
A_0     C     0.6317     0.1288     0.6386
A_3     C     0.4504     0.651     0.4575
A_2     C     0.6066     0.7767     0.774
A_2     C     0.7667     0.8238     0.2849
A_3     C     0.279     0.1382     0.2835
A_3     C     0.1107     0.3123     0.387
A_1     C     0.5305     0.0148     0.8087
A_0     C     0.9167     0.4274     0.4618
A_3     C     0.2385     0.864     0.9422
A_2     C     0.0989     0.75     0.3977
A_1     C     0.2837     0.7659     0.0651
A_0     C     0.4248     0.7119     0.7436
A_0     C     0.693     0.5276     0.5328
A_0     C     0.6132     0.1405     0.3728
A_0     C     0.9602     0.0868     0.8376
A_2     C     0.5519     0.0907     0.0918
A_2     C     0.4116     0.0366     0.9496
A_2     C     0.1799     0.1856     0.9893
A_3     C     0.7404     0.8227     0.0503
A_3     C     0.7663     0.2886     0.5536
A_2     C     0.0111     0.4396     0.0138
A_2     C     0.4219     0.9693     0.126
A_2     C     0.1148     0.3671     0.5662
A_3     C     0.5756     0.9818     0.532
A_1     C     0.6391     0.891     0.0676
A_1     C     0.1411     0.1607     0.7887
A_2     C     0.0433     0.0108     0.1056
A_1     C     0.3052     0.9602     0.1913
A_1     C     0.5031     0.8424     0.098
A_2     C     0.4136     0.0944     0.9828
A_2     C     0.9244     0.6457     0.4682
A_2     C     0.0236     0.2663     0.6233
A_3     C     0.3236     0.0049     0.5948
A_3     C     0.3402     0.7195     0.9614
A_0     C     0.2445     0.2684     0.2962
A_1     C     0.8125     0.9852     0.4991
A_0     C     0.7795     0.2599     0.3568
A_3     C     0.296     0.2332     0.579
A_0     C     0.0978     0.1943     0.9326
A_3     C     0.1179     0.0137     0.4503
A_0     C     0.9711     0.8264     0.3436
A_2     C     0.1011     0.8008     0.4404
A_3     C     0.783     0.8291     0.9179
A_0     C     0.1687     0.0614     0.6625
A_1     C     0.0221     0.9762     0.9972
A_0     C     0.3077     0.9583     0.817
A_1     C     0.7034     0.2091     0.83
A_0     C     0.9308     0.056     0.0526
A_1     C     0.3889     0.9328     0.4356
A_3     C     0.4583     0.1058     0.2774
A_3     C     0.4631     0.9755     0.4777
A_0     C     0.29     0.8577     0.8221
A_0     C     0.3581     0.1024     0.9079
A_2     C     0.8944     0.7253     0.8107
A_0     C     0.9387     0.8228     0.7095
A_0     C     0.2918     0.838     0.6538
A_1     C     0.4154     0.0087     0.0513
A_2     C     0.984     0.9538     0.0881
A_1     C     0.0584     0.4893     0.4193
A_1     C     0.8189     0.9924     0.9474
A_2     C     0.0633     0.1726     0.1531
A_3     C     0.1987     0.5277     0.3106
A_3     C     0.143     0.6439     0.27
A_2     C     0.98     0.235     0.0082
A_1     C     0.9591     0.9491     0.1143
A_0     C     0.8601     0.9264     0.7296
A_2     C     0.548     0.1562     0.1684
A_0     C     0.8489     0.078     0.2971
A_2     C     0.1393     0.551     0.4165
A_2     C     0.3716     0.9185     0.8097
A_1     C     0.7231     0.1012     0.403
A_2     C     0.2899     0.9569     0.4036
A_1     C     0.4482     0.1311     0.1961
A_0     C     0.5704     0.0293     0.2018
A_3     C     0.1661     0.51     0.5723
A_0     C     0.9707     0.8712     0.6952
A_1     C     0.0479     0.3584     0.6832
A_3     C     0.8499     0.8168     0.5221
A_1     C     0.8335     0.153     0.6371
A_1     C     0.586     0.3491     0.3886
A_3     C     0.0954     0.4421     0.8334
A_0     C     0.8478     0.1867     0.5284
A_0     C     0.2515     0.9204     0.6953
A_0     C     0.1178     0.0604     0.7621
A_2     C     0.638     0.0297     0.453
A_1     C     0.0479     0.5946     0.5732
A_2     C     0.8127     0.5777     0.3164
A_0     C     0.1801     0.9668     0.7839
A_2     C     0.5629     0.3585     0.0403
A_0     C     0.4057     0.5183     0.5789
A_0     C     0.7365     0.3224     0.9157
A_3     C     0.7098     0.9562     0.9008
A_1     C     0.4451     0.2902     0.9264
A_1     C     0.7382     0.6969     0.3217
A_0     C     0.7126     0.4444     0.4378
A_2     C     0.7503     0.828     0.2567
A_0     C     0.1486     0.7347     0.8562
A_2     C     0.1482     0.4583     0.6542
A_0     C     0.6737     0.7349     0.49
A_0     C     0.0516     0.008     0.249
A_3     C     0.7394     0.4772     0.1794
A_1     C     0.6718     0.7848     0.3392
A_2     C     0.8198     0.3877     0.1384
A_3     C     0.4725     0.5275     0.2893
A_2     C     0.0269     0.5162     0.8638
A_1     C     0.3336     0.918     0.53
A_1     C     0.4273     0.4596     0.6537
A_3     C     0.3669     0.1105     0.3209
A_1     C     0.6709     0.4245     0.5267
A_2     C     0.9399     0.7485     0.197
A_0     C     0.5002     0.6606     0.8755
A_3     C     0.869     0.7091     0.6549
A_1     C     0.0659     0.9343     0.9253
A_1     C     0.9586     0.6447     0.6381
A_2     C     0.8967     0.545     0.0216
A_1     C     0.0816     0.1496     0.7452
A_2     C     0.4382     0.2308     0.7335
A_2     C     0.7944     0.6546     0.897
A_3     C     0.0595     0.4124     0.6424
A_1     C     0.9752     0.9966     0.8834
A_2     C     0.2075     0.7069     0.9921
A_3     C     0.7894     0.7323     0.2057
A_2     C     0.0881     0.6624     0.0378
A_3     C     0.4271     0.0452     0.2548
A_0     C     0.0794     0.5577     0.9999
A_0     C     0.1659     0.165     0.3121
A_2     C     0.2717     0.4591     0.0128
A_3     C     0.0242     0.6093     0.0498
A_0     C     0.6906     0.7132     0.5724
A_1     C     0.9065     0.363     0.6966
A_2     C     0.0438     0.7834     0.3689
A_2     C     0.5851     0.6905     0.2362
A_0     C     0.1187     0.3859     0.9663
A_2     C     0.8247     0.5004     0.6165
A_0     C     0.1606     0.0739     0.4558
A_2     C     0.3077     0.6025     0.2199
A_1     C     0.8677     0.849     0.5031
A_2     C     0.242     0.8358     0.4552
A_0     C     0.4406     0.8303     0.0076
A_1     C     0.0964     0.5033     0.2621
A_2     C     0.5407     0.5526     0.2797
A_0     C     0.2743     0.2695     0.4845
A_1     C     0.814     0.8995     0.6805
A_3     C     0.6266     0.3507     0.148
A_0     C     0.464     0.7233     0.6347
A_0     C     0.3761     0.1311     0.4656
A_2     C     0.4984     0.2314     0.6851
A_2     C     0.2318     0.6929     0.7415
A_1     C     0.5197     0.6051     0.847
A_3     C     0.387     0.9885     0.3426
A_1     C     0.5198     0.4123     0.5351
A_1     C     0.0568     0.7463     0.4032
A_0     C     0.0015     0.5648     0.5178
A_3     C     0.722     0.882     0.077
A_2     C     0.0995     0.926     0.0913
A_2     C     0.5735     0.7168     0.5893
A_3     C     0.6924     0.5549     0.8882
A_1     C     0.4167     0.8887     0.4843
A_0     C     0.1116     0.864     0.5938
A_1     C     0.2206     0.1399     0.3171
A_1     C     0.7151     0.1904     0.6962
A_2     C     0.2645     0.1872     0.7469
A_2     C     0.2605     0.0639     0.6842
A_2     C     0.5752     0.6673     0.7201
A_3     C     0.8396     0.7022     0.497
A_3     C     0.9438     0.4171     0.1183
A_1     C     0.4483     0.6532     0.876
A_1     C     0.816     0.5707     0.0283
A_1     C     0.345     0.5878     0.2645
A_3     C     0.418     0.7339     0.8656
A_0     C     0.687     0.6622     0.9276
A_0     C     0.2448     0.8373     0.4978
A_2     C     0.511     0.6402     0.6551
A_3     C     0.495     0.9103     0.0947
A_1     C     0.3526     0.3021     0.3072
A_3     C     0.5933     0.5715     0.7854
A_3     C     0.9503     0.4485     0.9019
A_2     C     0.1602     0.2788     0.1625
A_3     C     0.1468     0.0823     0.6478
A_0     C     0.4327     0.6162     0.4412
A_2     C     0.9609     0.0697     0.7548
A_2     C     0.0776     0.9757     0.4584
A_0     C     0.2368     0.6954     0.2218
A_0     C     0.0343     0.5504     0.8372
A_0     C     0.0363     0.4265     0.5596
A_2     C     0.9813     0.4655     0.6338
A_0     C     0.9226     0.7704     0.3191
A_2     C     0.0006     0.4092     0.1639
A_1     C     0.9535     0.701     0.1436
A_2     C     0.7287     0.4738     0.881
A_2     C     0.8803     0.187     0.8293
A_3     C     0.2219     0.3963     0.4737
A_3     C     0.2844     0.1506     0.6059
A_1     C     0.6589     0.9495     0.7815
A_3     C     0.2658     0.5847     0.1122
A_0     C     0.8656     0.9364     0.352
A_3     C     0.4239     0.6975     0.4243
A_1     C     0.7171     0.0928     0.613
A_3     C     0.8172     0.5039     0.046
A_1     C     0.0672     0.2787     0.2846
A_0     C     0.778     0.2437     0.8236
A_3     C     0.2651     0.9082     0.6787
A_1     C     0.0948     0.8092     0.7927
A_2     C     0.4351     0.4167     0.1041
A_1     C     0.2357     0.7619     0.1758
A_0     C     0.7269     0.2783     0.8059
A_2     C     0.4503     0.0277     0.011
A_0     C     0.7597     0.9489     0.9563
A_1     C     0.3894     0.3453     0.7069
A_3     C     0.3563     0.8614     0.2953
A_1     C     0.5461     0.2769     0.7582
A_1     C     0.7401     0.2458     0.2097
A_1     C     0.5488     0.5303     0.2677
A_0     C     0.6055     0.9971     0.5975
A_3     C     0.0429     0.4175     0.6213
A_3     C     0.1985     0.7245     0.6043
A_2     C     0.9561     0.7924     0.0111
A_3     C     0.4741     0.8786     0.3558
A_3     C     0.3105     0.01     0.3183
A_2     C     0.6402     0.271     0.1453
A_1     C     0.9486     0.5288     0.0866
A_2     C     0.7853     0.8531     0.6692
A_1     C     0.6128     0.4298     0.7841
A_3     C     0.8455     0.0556     0.9022
A_0     C     0.4038     0.4947     0.7047
A_1     C     0.9984     0.41     0.2653
A_1     C     0.4408     0.9281     0.2187
A_0     C     0.0617     0.4613     0.4755
A_0     C     0.719     0.015     0.3522
A_0     C     0.2602     0.0271     0.2327
A_1     C     0.9683     0.2182     0.254
A_2     C     0.6237     0.1293     0.9795
A_0     C     0.6054     0.0855     0.463
A_3     C     0.4235     0.852     0.7724
A_3     C     0.9906     0.6917     0.4111
A_1     C     0.2847     0.8579     0.9155
A_2     C     0.9673     0.5737     0.224
A_2     C     0.9781     0.7631     0.4672
A_1     C     0.1544     0.5232     0.5146
A_2     C     0.1548     0.0555     0.7042
A_2     C     0.5452     0.3971     0.3158
A_2     C     0.2545     0.1585     0.9087
A_2     C     0.7056     0.9164     0.0335
A_3     C     0.5891     0.8365     0.2668
A_3     C     0.5441     0.2922     0.1662
A_2     C     0.7042     0.5123     0.0201
A_0     C     0.8597     0.8644     0.1434
A_2     C     0.1052     0.7744     0.6892
A_0     C     0.4656     0.9412     0.2779
A_3     C     0.1138     0.7253     0.9757
A_3     C     0.5467     0.9741     0.0353
A_3     C     0.5138     0.7661     0.3126
A_0     C     0.1121     0.4839     0.3488
A_1     C     0.4033     0.8616     0.0482
A_0     C     0.4567     0.5948     0.2968
A_0     C     0.0906     0.3034     0.9819
A_0     C     0.875     0.6968     0.2715
A_2     C     0.4574     0.1497     0.0937
A_3     C     0.4534     0.1009     0.2509
A_2     C     0.4123     0.0825     0.0293
A_3     C     0.221     0.5689     0.5272
A_1     C     0.5028     0.764     0.0968
A_3     C     0.5687     0.7571     0.1421
A_0     C     0.1414     0.7349     0.6379
A_2     C     0.2995     0.2098     0.4307
A_3     C     0.0423     0.1665     0.6516
A_3     C     0.141     0.8029     0.3407
A_3     C     0.9184     0.149     0.0407
A_2     C     0.3488     0.9269     0.2422
A_1     C     0.6371     0.1077     0.3953
A_0     C     0.5582     0.6909     0.4074
A_2     C     0.14     0.6141     0.0738
A_3     C     0.3755     0.891     0.3329
A_1     C     0.5396     0.8544     0.2463
A_0     C     0.2833     0.8681     0.0987
A_2     C     0.6976     0.5483     0.923
A_3     C     0.7802     0.7038     0.4738
A_3     C     0.7225     0.1353     0.0818
A_0     C     0.7176     0.5261     0.4753
A_0     C     0.8835     0.8433     0.0824
A_0     C     0.4014     0.6554     0.7633
A_2     C     0.4112     0.624     0.1928
A_2     C     0.4742     0.8338     0.6476
A_1     C     0.5327     0.3401     0.3732
A_2     C     0.6681     0.4621     0.1272
A_1     C     0.4815     0.9334     0.1324
A_2     C     0.094     0.7499     0.7736
A_0     C     0.3591     0.5736     0.1676
A_1     C     0.0238     0.2741     0.8057
A_1     C     0.5934     0.3066     0.2691
A_0     C     0.1072     0.3692     0.223
A_1     C     0.8262     0.0773     0.6199
A_0     C     0.4887     0.0389     0.9059
A_1     C     0.9021     0.0665     0.5744
A_2     C     0.5113     0.2064     0.1862
A_2     C     0.3569     0.6337     0.9667
A_2     C     0.9653     0.9744     0.195
A_1     C     0.3954     0.0534     0.0849
A_0     C     0.7838     0.9393     0.0415
A_1     C     0.8129     0.6765     0.0807
A_2     C     0.6652     0.2188     0.4383
A_2     C     0.3669     0.557     0.7993
A_0     C     0.0736     0.4916     0.9032
A_2     C     0.6764     0.6549     0.5003
A_2     C     0.5384     0.2639     0.3248
A_3     C     0.2833     0.0431     0.3649
A_1     C     0.7701     0.7669     0.9475
A_2     C     0.0028     0.1495     0.8565
A_0     C     0.0358     0.7882     0.2816
A_0     C     0.555     0.7055     0.8616
A_0     C     0.7293     0.3557     0.4483
A_2     C     0.3872     0.973     0.3294
A_3     C     0.4618     0.2968     0.7985
A_2     C     0.3927     0.9933     0.5863
A_0     C     0.7719     0.9529     0.0245
A_1     C     0.8657     0.5084     0.6726
A_3     C     0.8855     0.5382     0.8911
A_3     C     0.6671     0.9597     0.0534
A_1     C     0.5209     0.2714     0.0201
A_3     C     0.7709     0.1809     0.8382
A_1     C     0.7615     0.8303     0.3511
A_2     C     0.8616     0.4673     0.0441
A_2     C     0.5591     0.516     0.5935
A_2     C     0.0367     0.9937     0.5096
A_2     C     0.4867     0.2141     0.7069
A_0     C     0.8341     0.1276     0.8224
A_3     C     0.4216     0.4381     0.823
A_0     C     0.7228     0.3688     0.7552
A_1     C     0.3079     0.557     0.8876
A_0     C     0.1631     0.4709     0.1775
A_3     C     0.3514     0.4204     0.498
A_2     C     0.2723     0.6593     0.6402
A_2     C     0.6151     0.0519     0.2919
A_3     C     0.8071     0.4157     0.8561
A_2     C     0.0292     0.703     0.5446
A_3     C     0.0416     0.9057     0.1293
A_0     C     0.0125     0.6006     0.2614
A_3     C     0.5937     0.9213     0.8742
A_3     C     0.5471     0.4091     0.1439
A_2     C     0.3593     0.2728     0.9003
A_2     C     0.6059     0.0024     0.1698
A_0     C     0.8943     0.1498     0.7529
A_1     C     0.4063     0.6825     0.1733
A_3     C     0.0594     0.0124     0.3088
A_3     C     0.1031     0.3324     0.8093
A_0     C     0.285     0.4616     0.212
A_1     C     0.3504     0.0533     0.0726
A_2     C     0.7086     0.4621     0.6293
A_2     C     0.643     0.3807     0.8198
A_0     C     0.746     0.379     0.9273
A_0     C     0.2266     0.9876     0.8494
A_3     C     0.7634     0.0355     0.4406
A_2     C     0.2665     0.4365     0.4057
A_2     C     0.5842     0.8412     0.9075
A_2     C     0.7526     0.9897     0.7712
A_0     C     0.6028     0.8545     0.1621
A_1     C     0.089     0.3184     0.1204
A_0     C     0.0848     0.3979     0.9412
A_2     C     0.4148     0.9552     0.4935
A_1     C     0.6442     0.2822     0.486
A_2     C     0.9532     0.6525     0.26
A_1     C     0.323     0.1069     0.9738
A_1     C     0.3468     0.0884     0.8245
A_1     C     0.0304     0.4787     0.5652
A_2     C     0.099     0.2623     0.7912
A_0     C     0.292     0.6069     0.9272
A_2     C     0.4741     0.8461     0.6222
A_0     C     0.1517     0.4205     0.67
A_1     C     0.333     0.613     0.8902
A_3     C     0.6208     0.3527     0.5986
A_1     C     0.5997     0.7639     0.503
A_3     C     0.7634     0.8853     0.4027
A_0     C     0.0932     0.7665     0.2265
A_0     C     0.5576     0.2243     0.8709
A_1     C     0.7781     0.9097     0.3289
A_0     C     0.1009     0.7406     0.6592
A_2     C     0.3305     0.7891     0.4729
A_1     C     0.7476     0.9551     0.964
A_2     C     0.3983     0.5832     0.0976
A_1     C     0.2234     0.883     0.2446
A_1     C     0.4887     0.2733     0.492
A_2     C     0.5335     0.1134     0.5614
A_3     C     0.3062     0.542     0.2685
A_2     C     0.4946     0.7217     0.0467
A_0     C     0.1752     0.4786     0.5013
A_1     C     0.9772     0.4367     0.4535
A_1     C     0.5339     0.1828     0.3429
A_3     C     0.5423     0.3026     0.8086
A_2     C     0.5308     0.669     0.1722
A_0     C     0.432     0.8558     0.2101
A_3     C     0.3378     0.6274     0.7217
A_2     C     0.6988     0.4525     0.7727
A_2     C     0.789     0.7252     0.1524
A_1     C     0.9392     0.3233     0.0356
A_1     C     0.0747     0.8243     0.2834
A_3     C     0.1286     0.5724     0.8427
A_2     C     0.4987     0.508     0.5739
A_2     C     0.9006     0.911     0.742
A_2     C     0.1084     0.296     0.1102
A_0     C     0.9271     0.2716     0.8853
A_0     C     0.444     0.6643     0.1095
A_1     C     0.0014     0.2546     0.2444
A_0     C     0.9324     0.7202     0.9437
A_3     C     0.4824     0.2296     0.5278
A_3     C     0.2064     0.0384     0.2776
A_1     C     0.952     0.962     0.2711
A_0     C     0.0168     0.569     0.6936
A_0     C     0.1971     0.2889     0.4212
A_2     C     0.8991     0.3573     0.029
A_0     C     0.9885     0.6785     0.9831
A_3     C     0.7625     0.6395     0.2063
A_0     C     0.5801     0.9043     0.2879
A_3     C     0.2448     0.2228     0.4503
A_0     C     0.1786     0.5567     0.4363
A_0     C     0.9509     0.0106     0.695
A_1     C     0.6659     0.0714     0.9811
A_3     C     0.8638     0.5141     0.3456
A_3     C     0.6289     0.342     0.1478
A_2     C     0.2298     0.5704     0.6288
A_2     C     0.8484     0.3548     0.365
A_2     C     0.0997     0.4768     0.9935
A_1     C     0.6537     0.1214     0.3661
A_2     C     0.9386     0.5644     0.5848
A_3     C     0.4777     0.5868     0.943
A_2     C     0.7866     0.2039     0.3708
A_3     C     0.4584     0.5564     0.4133
A_1     C     0.3307     0.6752     0.1803
A_1     C     0.6265     0.6917     0.4576
A_0     C     0.1615     0.2378     0.0474
A_3     C     0.0602     0.9108     0.379
A_1     C     0.5318     0.9792     0.5972
A_3     C     0.0914     0.0269     0.1661
A_0     C     0.016     0.2128     0.0589
A_0     C     0.9538     0.3911     0.4951
A_3     C     0.1367     0.3367     0.3996
A_3     C     0.0617     0.428     0.8788
A_3     C     0.5806     0.4822     0.892
A_0     C     0.2371     0.974     0.99
A_2     C     0.8227     0.9093     0.7663
A_0     C     0.5574     0.8098     0.4097
A_2     C     0.6978     0.8181     0.0221
A_0     C     0.0519     0.4867     0.3095
A_2     C     0.3773     0.3401     0.6607
A_1     C     0.1143     0.5341     0.9229
A_3     C     0.2602     0.8015     0.9285
A_0     C     0.7966     0.2374     0.2741
A_2     C     0.5429     0.4227     0.8453
A_0     C     0.5481     0.4989     0.609
A_0     C     0.3598     0.9645     0.6733
A_1     C     0.7051     0.6773     0.4511
A_0     C     0.1544     0.7602     0.2711
A_2     C     0.002     0.7655     0.0489
A_3     C     0.7229     0.0839     0.2493
A_1     C     0.7174     0.2952     0.9328
A_0     C     0.9641     0.8092     0.271
A_2     C     0.7764     0.4869     0.9977
A_1     C     0.9334     0.5595     0.1252
A_1     C     0.8209     0.1594     0.3702
A_2     C     0.1156     0.5258     0.145
A_0     C     0.9423     0.8159     0.4192
A_3     C     0.6296     0.5044     0.1684
A_3     C     0.5549     0.077     0.1048
A_2     C     0.8406     0.3323     0.179
A_1     C     0.4902     0.9342     0.1996
A_2     C     0.9536     0.8351     0.9899
A_2     C     0.0334     0.6804     0.2464
A_3     C     0.6468     0.2639     0.7039
A_1     C     0.6681     0.4776     0.5785
A_1     C     0.1042     0.3022     0.1846
A_0     C     0.224     0.7358     0.7258
A_3     C     0.7628     0.5148     0.6662
A_2     C     0.7463     0.6876     0.9747
A_0     C     0.3191     0.7074     0.2536
A_3     C     0.0781     0.2524     0.9699
A_3     C     0.6563     0.0468     0.4772
A_0     C     0.9869     0.3385     0.4517
A_0     C     0.4319     0.7846     0.8159
A_2     C     0.3293     0.1836     0.9941
A_3     C     0.5336     0.5335     0.4419
A_0     C     0.6157     0.2063     0.5365
A_2     C     0.9487     0.6465     0.7118
A_2     C     0.9155     0.116     0.651
A_0     C     0.1869     0.6497     0.5481
A_1     C     0.9508     0.2403     0.1039
A_0     C     0.5505     0.7857     0.0034
A_2     C     0.1228     0.921     0.5788
A_3     C     0.9333     0.8221     0.8803
A_0     C     0.6258     0.2599     0.5201
A_0     C     0.3027     0.6214     0.7729
A_2     C     0.4727     0.1847     0.2497
A_1     C     0.7117     0.3428     0.5609
A_3     C     0.8224     0.0849     0.2376
A_0     C     0.8675     0.2965     0.783
A_0     C     0.5943     0.7933     0.3927
A_2     C     0.0382     0.0328     0.0446
A_2     C     0.2254     0.6379     0.9777
A_0     C     0.24     0.5393     0.9028
A_1     C     0.302     0.0767     0.1092
A_1     C     0.5446     0.9349     0.9477
A_1     C     0.6928     0.6958     0.866
A_3     C     0.9157     0.8631     0.4468
A_0     C     0.7487     0.6686     0.3405
A_0     C     0.1937     0.9456     0.6044
A_2     C     0.8908     0.0697     0.1642
A_0     C     0.6122     0.5502     0.5618
A_2     C     0.4068     0.6176     0.1434
A_3     C     0.3863     0.5809     0.3739
A_3     C     0.2123     0.8148     0.2427
A_3     C     0.4513     0.5629     0.088
A_2     C     0.454     0.8112     0.9264
A_1     C     0.7692     0.9485     0.6688
A_1     C     0.5301     0.5922     0.8878
A_2     C     0.5754     0.1924     0.4979
A_0     C     0.5564     0.491     0.7102
A_1     C     0.2471     0.8058     0.3767
A_1     C     0.8898     0.2712     0.8243
A_0     C     0.2392     0.7618     0.3426
A_2     C     0.2852     0.5159     0.4562
A_2     C     0.9257     0.318     0.6718
A_0     C     0.5352     0.2667     0.68
A_2     C     0.74     0.1978     0.8884
A_0     C     0.8597     0.0359     0.1398
A_1     C     0.9865     0.2356     0.3404
A_1     C     0.9121     0.7884     0.9069
A_3     C     0.6743     0.5786     0.7214
A_0     C     0.9783     0.8652     0.5614
A_1     C     0.5305     0.8114     0.0428
A_1     C     0.2836     0.3212     0.3305
A_3     C     0.1264     0.6244     0.2754
A_0     C     0.3788     0.3382     0.7919
A_0     C     0.6721     0.557     0.0905
A_2     C     0.9775     0.2345     0.6861
A_1     C     0.6564     0.8866     0.9005
A_0     C     0.4494     0.8702     0.0258
A_0     C     0.4543     0.4719     0.1602
A_2     C     0.1733     0.3636     0.1014
A_2     C     0.5987     0.1298     0.4271
A_2     C     0.2018     0.9986     0.8988
A_2     C     0.3383     0.7664     0.0303
A_0     C     0.5749     0.9517     0.2836
A_0     C     0.852     0.6707     0.8232
A_0     C     0.8997     0.9095     0.5669
A_3     C     0.9918     0.0587     0.7787
A_1     C     0.3337     0.3825     0.0819
A_2     C     0.1495     0.0736     0.2506
A_2     C     0.1162     0.485     0.6315
A_3     C     0.8512     0.118     0.3506
A_3     C     0.8661     0.7992     0.8747
A_2     C     0.1362     0.3876     0.3395
A_2     C     0.1368     0.8216     0.3782
A_2     C     0.5664     0.1399     0.5879
A_0     C     0.0423     0.4252     0.307
A_1     C     0.6668     0.8152     0.3185
A_1     C     0.5357     0.8609     0.0031
A_3     C     0.417     0.8618     0.2609
A_2     C     0.2895     0.1715     0.6206
A_3     C     0.3436     0.2497     0.6938
A_1     C     0.9059     0.4472     0.7448
A_2     C     0.571     0.4309     0.5289
A_1     C     0.5125     0.4992     0.1094
A_1     C     0.7149     0.4876     0.0682
A_2     C     0.1119     0.8396     0.6294
A_2     C     0.6559     0.7533     0.3039
A_2     C     0.2397     0.6178     0.0497
A_3     C     0.6181     0.5387     0.0175
A_2     C     0.4557     0.9537     0.0832
A_0     C     0.7134     0.6745     0.2079
A_3     C     0.6308     0.9553     0.8847
A_2     C     0.528     0.1821     0.207
A_0     C     0.6679     0.5408     0.1297
A_0     C     0.5291     0.2477     0.2081
A_0     C     0.5184     0.9594     0.5196
A_2     C     0.0342     0.8999     0.2236
A_2     C     0.2702     0.2519     0.1534
A_1     C     0.8706     0.9806     0.8563
A_1     C     0.6918     0.0912     0.2272
A_0     C     0.7725     0.5917     0.5357
A_1     C     0.8721     0.7091     0.6843
A_1     C     0.2107     0.5123     0.1801
A_0     C     0.0286     0.9334     0.6863
A_1     C     0.6955     0.6264     0.7002
A_3     C     0.4074     0.826     0.8544
A_3     C     0.948     0.2647     0.2492
A_0     C     0.8331     0.2787     0.874
A_2     C     0.9865     0.5568     0.7299
A_3     C     0.0847     0.2202     0.0954
A_0     C     0.142     0.5631     0.5569
A_3     C     0.532     0.1987     0.9912
A_1     C     0.9643     0.7519     0.9881
A_2     C     0.6005     0.4275     0.8532
A_2     C     0.4491     0.397     0.3439
A_1     C     0.92     0.7526     0.9727
A_2     C     0.8934     0.8474     0.2361
A_2     C     0.7783     0.1292     0.1824
A_0     C     0.4074     0.3055     0.7432
A_2     C     0.9754     0.5738     0.3163
A_3     C     0.2242     0.4729     0.4403
A_2     C     0.0753     0.2074     0.2814
A_3     C     0.066     0.5696     0.2563
A_1     C     0.1399     0.5367     0.193
A_3     C     0.1196     0.2195     0.6938
A_1     C     0.4378     0.9891     0.3453
A_3     C     0.8455     0.1831     0.0722
A_1     C     0.4826     0.9304     0.0432
A_0     C     0.2348     0.5279     0.241
A_0     C     0.7322     0.3682     0.392
A_3     C     0.4193     0.6094     0.956
A_3     C     0.1938     0.9528     0.4159
A_2     C     0.0055     0.9139     0.1072
A_1     C     0.9122     0.9862     0.6789
A_3     C     0.9526     0.7212     0.6982
A_0     C     0.2931     0.3124     0.2249
A_2     C     0.8644     0.3503     0.3934
A_2     C     0.9199     0.4196     0.8688
A_3     C     0.1172     0.4065     0.2814
A_3     C     0.5637     0.2782     0.2098
A_2     C     0.3106     0.5677     0.004
A_1     C     0.9791     0.9179     0.1685
A_3     C     0.0404     0.7195     0.6387
A_2     C     0.3746     0.7577     0.0742
A_3     C     0.4124     0.0583     0.0947
A_0     C     0.4485     0.4653     0.1466
A_2     C     0.7544     0.0244     0.2261
A_0     C     0.7707     0.3681     0.2976
A_3     C     0.9903     0.839     0.8542
A_2     C     0.9309     0.9288     0.8535
A_0     C     0.6063     0.683     0.6384
A_3     C     0.3593     0.6447     0.1102
A_1     C     0.8358     0.7984     0.7117
A_2     C     0.978     0.3273     0.7359
A_0     C     0.9107     0.9165     0.7819
A_2     C     0.4131     0.1386     0.3067
A_2     C     0.8495     0.8914     0.9443
A_2     C     0.2119     0.8399     0.3293
A_1     C     0.7113     0.297     0.7445
A_1     C     0.7691     0.9629     0.0896
A_0     C     0.2705     0.9534     0.9627
A_2     C     0.1389     0.1653     0.0071
A_1     C     0.4048     0.6382     0.5619
A_2     C     0.5998     0.234     0.1428
A_3     C     0.0797     0.1518     0.7203
A_3     C     0.8452     0.0799     0.0005
A_3     C     0.2952     0.7086     0.5349
A_3     C     0.1955     0.7687     0.431
A_0     C     0.1715     0.23     0.9166
A_1     C     0.9187     0.5793     0.6183
A_2     C     0.8805     0.0764     0.2606
A_2     C     0.6541     0.2326     0.9062
A_0     C     0.7689     0.5259     0.0874
A_3     C     0.7153     0.4262     0.5037
A_1     C     0.9279     0.4947     0.8314
A_3     C     0.1173     0.227     0.9571
A_0     C     0.1241     0.3316     0.6391
A_3     C     0.1894     0.8877     0.4053
A_1     C     0.5781     0.7076     0.8263
A_3     C     0.1167     0.7136     0.6113
A_2     C     0.0728     0.4566     0.2216
A_3     C     0.8088     0.4878     0.3536
A_0     C     0.5439     0.9064     0.8816
A_3     C     0.3444     0.255     0.972
A_0     C     0.1016     0.9933     0.2148
A_0     C     0.7831     0.8735     0.3811
A_1     C     0.7178     0.0492     0.824
A_2     C     0.1885     0.7692     0.8597
A_3     C     0.1154     0.4093     0.2136
A_1     C     0.9669     0.9278     0.4883
A_1     C     0.2554     0.114     0.0029
A_1     C     0.6599     0.2269     0.7091
A_3     C     0.0421     0.9866     0.8938
A_1     C     0.172     0.815     0.6376
A_0     C     0.6266     0.1284     0.5092
A_2     C     0.4378     0.6926     0.3799
A_2     C     0.6951     0.5122     0.4888
A_3     C     0.4431     0.5758     0.8187
A_0     C     0.5053     0.8966     0.0289
A_0     C     0.5361     0.9857     0.9615
A_2     C     0.538     0.4031     0.5288
A_3     C     0.769     0.5965     0.0166
A_2     C     0.4763     0.6911     0.0671
A_1     C     0.3873     0.4768     0.0051
A_0     C     0.9827     0.7939     0.6921
A_0     C     0.7669     0.7279     0.249
A_3     C     0.4484     0.161     0.5537
A_3     C     0.2846     0.9657     0.7762
A_3     C     0.008     0.5438     0.7433
A_2     C     0.6288     0.5477     0.4703
A_3     C     0.4672     0.404     0.1748
A_0     C     0.1187     0.9135     0.5788
A_2     C     0.9356     0.7769     0.2113
A_0     C     0.6749     0.8535     0.1853
A_3     C     0.7692     0.1484     0.3492
A_2     C     0.7358     0.6714     0.3276
A_0     C     0.5349     0.7938     0.2917
A_1     C     0.9093     0.9766     0.7926
A_1     C     0.7397     0.7049     0.1025
A_0     C     0.8721     0.9584     0.652
A_0     C     0.6738     0.2851     0.4129
A_0     C     0.5468     0.2     0.514
A_0     C     0.7304     0.8138     0.3751
A_1     C     0.835     0.492     0.2981
A_1     C     0.8534     0.1502     0.5916
A_3     C     0.3158     0.4181     0.1388
A_3     C     0.9775     0.7958     0.4088
A_1     C     0.6106     0.6977     0.5928
A_1     C     0.5691     0.9038     0.6832
A_1     C     0.525     0.2766     0.3345
A_3     C     0.2926     0.0235     0.5207
A_0     C     0.1649     0.2058     0.3108
A_2     C     0.7496     0.8878     0.7638
A_3     C     0.5009     0.7967     0.5299
A_0     C     0.2981     0.9395     0.3939
A_0     C     0.8603     0.9571     0.0391
A_2     C     0.6108     0.2814     0.0663
A_0     C     0.2618     0.0629     0.4589
A_3     C     0.9151     0.9131     0.8376
A_2     C     0.7611     0.5794     0.1603
A_1     C     0.4713     0.0952     0.9449
A_3     C     0.5387     0.0769     0.0047
A_2     C     0.6719     0.2521     0.7353
A_3     C     0.2682     0.6094     0.3043
A_2     C     0.5146     0.1097     0.0225
A_0     C     0.3609     0.4749     0.5485
A_0     C     0.3381     0.3055     0.1794
A_2     C     0.3586     0.7439     0.5487
A_3     C     0.3481     0.9494     0.2338
A_2     C     0.1963     0.4607     0.6068
A_0     C     0.6154     0.3819     0.3575
A_3     C     0.4805     0.1522     0.7594
A_0     C     0.9413     0.9857     0.8412
A_3     C     0.8207     0.2161     0.7765
A_0     C     0.8247     0.3946     0.8889
A_0     C     0.943     0.1351     0.219
A_2     C     0.3346     0.5174     0.6347
A_3     C     0.6323     0.9648     0.6834
A_3     C     0.575     0.9836     0.5324
A_2     C     0.975     0.5631     0.3001
A_0     C     0.0296     0.0484     0.7218
A_0     C     0.4369     0.7938     0.2107
A_2     C     0.9979     0.8694     0.2188
A_1     C     0.2896     0.6889     0.6136
A_2     C     0.0303     0.2748     0.2844
A_1     C     0.6174     0.2733     0.4467
A_1     C     0.6464     0.9356     0.1371
A_2     C     0.5827     0.0192     0.2291
A_0     C     0.6594     0.3621     0.0266
A_2     C     0.4352     0.118     0.1423
A_1     C     0.6694     0.9259     0.5917
A_0     C     0.7931     0.3037     0.3926
A_0     C     0.8609     0.4111     0.3635
A_0     C     0.9231     0.8512     0.9044
A_3     C     0.0152     0.2048     0.7928
A_0     C     0.0774     0.0695     0.2558
A_3     C     0.8307     0.7149     0.9787
A_2     C     0.9942     0.3005     0.1393
A_0     C     0.1044     0.9582     0.9675
A_0     C     0.7837     0.6548     0.8376
A_0     C     0.7395     0.1495     0.9165
A_0     C     0.8966     0.6534     0.9406
A_0     C     0.2573     0.7555     0.9834
A_3     C     0.499     0.2858     0.4298
A_2     C     0.5316     0.1173     0.0912
A_3     C     0.8775     0.2109     0.5619
A_1     C     0.7195     0.5081     0.2931
A_0     C     0.8802     0.306     0.7167
A_2     C     0.1962     0.9654     0.1131
A_3     C     0.7487     0.9738     0.9697
A_2     C     0.4719     0.825     0.9691
A_0     C     0.245     0.2282     0.4601
A_2     C     0.2901     0.6323     0.0195
A_1     C     0.1513     0.2067     0.2572
A_3     C     0.3459     0.059     0.5395
A_2     C     0.828     0.193     0.2462
A_0     C     0.3297     0.0625     0.3122
A_0     C     0.5315     0.4531     0.8668
A_2     C     0.7446     0.9893     0.8236
A_0     C     0.8644     0.5647     0.1019
A_1     C     0.1152     0.504     0.1843
A_2     C     0.6928     0.3264     0.4799
A_0     C     0.3531     0.8366     0.1489
A_2     C     0.3481     0.0183     0.1912
A_1     C     0.2749     0.0064     0.3404
A_1     C     0.9108     0.9121     0.015
A_1     C     0.4002     0.8626     0.3286
A_3     C     0.5592     0.0376     0.0649
A_1     C     0.7067     0.2484     0.6463
A_0     C     0.5485     0.5629     0.9089
A_3     C     0.585     0.1815     0.7411
A_0     C     0.2181     0.758     0.7269
A_0     C     0.7057     0.2585     0.4831
A_2     C     0.4313     0.1929     0.8818
A_2     C     0.5791     0.487     0.6396
A_3     C     0.8717     0.0927     0.8573
A_2     C     0.0766     0.2456     0.2364
A_2     C     0.5804     0.9471     0.7425
A_0     C     0.7749     0.6572     0.8175
A_0     C     0.2516     0.6674     0.9445
A_0     C     0.3146     0.7631     0.1866
A_0     C     0.234     0.4399     0.14
A_1     C     0.5958     0.9561     0.8776
A_3     C     0.2935     0.4254     0.7451
A_0     C     0.0512     0.5544     0.7376
A_3     C     0.3186     0.952     0.3685
A_2     C     0.4434     0.158     0.3648
A_3     C     0.0573     0.7795     0.4163
A_0     C     0.2113     0.7759     0.2364
A_2     C     0.4739     0.9669     0.1587
A_2     C     0.0855     0.4169     0.2989
A_0     C     0.8073     0.9297     0.8572
A_2     C     0.633     0.414     0.477
A_0     C     0.1052     0.6698     0.513
A_2     C     0.8271     0.2092     0.5252
A_0     C     0.8469     0.0027     0.1885
A_2     C     0.6322     0.0554     0.6152
A_0     C     0.6689     0.3006     0.1365
A_1     C     0.3032     0.8975     0.7391
A_0     C     0.1753     0.0475     0.9355
A_3     C     0.9705     0.3968     0.253
A_2     C     0.5011     0.092     0.1892
A_1     C     0.9705     0.0899     0.2299
A_2     C     0.726     0.7845     0.9104
A_2     C     0.8375     0.0032     0.7022
A_2     C     0.4171     0.4164     0.9523
A_1     C     0.4595     0.1583     0.3261
A_0     C     0.6929     0.7249     0.8604
A_3     C     0.6465     0.1512     0.3195
A_2     C     0.6907     0.0568     0.0664
A_1     C     0.0495     0.3547     0.4681
A_3     C     0.5498     0.2171     0.2887
A_1     C     0.2715     0.08     0.6447
A_1     C     0.257     0.9468     0.7396
A_0     C     0.936     0.5863     0.0759
A_1     C     0.1132     0.2554     0.556
A_0     C     0.5472     0.6776     0.5318
A_0     C     0.4824     0.8278     0.8216
A_1     C     0.8096     0.6027     0.6882
A_1     C     0.6805     0.6258     0.2832
A_3     C     0.9245     0.0689     0.9063
A_1     C     0.4982     0.5611     0.2872
A_2     C     0.6082     0.9927     0.5821
A_1     C     0.6794     0.2961     0.3182
A_1     C     0.2476     0.8004     0.5462
A_1     C     0.4694     0.0294     0.7534
A_2     C     0.0454     0.8463     0.5069
A_0     C     0.7938     0.6576     0.5949
A_3     C     0.4345     0.7406     0.4374
A_0     C     0.1327     0.4699     0.5787
A_1     C     0.1094     0.5955     0.1075
A_2     C     0.4033     0.0404     0.9105
A_2     C     0.6284     0.0821     0.8529
A_2     C     0.6744     0.9728     0.425
A_1     C     0.7032     0.3178     0.9611
A_1     C     0.5609     0.2529     0.9704
A_3     C     0.3086     0.5514     0.0527
A_0     C     0.1182     0.1353     0.7058
A_1     C     0.8651     0.4234     0.9249
A_3     C     0.4263     0.474     0.688
A_1     C     0.5624     0.0946     0.8559
A_3     C     0.4676     0.5804     0.4679
A_1     C     0.9249     0.5092     0.7214
A_1     C     0.7256     0.2535     0.7323
A_1     C     0.0492     0.5355     0.522
A_0     C     0.3564     0.926     0.2779
A_3     C     0.9427     0.3853     0.5314
A_3     C     0.2065     0.1044     0.584
A_0     C     0.8911     0.353     0.2896
A_2     C     0.427     0.3628     0.348
A_2     C     0.1554     0.256     0.6105
A_3     C     0.1943     0.9622     0.0898
A_2     C     0.6329     0.3494     0.8088
A_1     C     0.1808     0.1837     0.8574
A_1     C     0.9906     0.8486     0.1135
A_0     C     0.6107     0.5041     0.3535
A_0     C     0.5492     0.3413     0.6005
A_1     C     0.929     0.5792     0.9204
A_0     C     0.3174     0.8132     0.6452
A_2     C     0.6534     0.9227     0.4961
A_1     C     0.0816     0.6168     0.8209
A_0     C     0.4627     0.858     0.8783
A_1     C     0.638     0.0422     0.713
A_0     C     0.1553     0.6223     0.3293
A_3     C     0.6462     0.2235     0.5106
A_1     C     0.9348     0.2181     0.4306
A_3     C     0.3286     0.7844     0.9781
A_3     C     0.861     0.5548     0.5366
A_3     C     0.9478     0.4435     0.6775
A_1     C     0.5659     0.8386     0.3825
A_2     C     0.0424     0.4062     0.1625
A_0     C     0.238     0.8461     0.3485
A_3     C     0.0222     0.879     0.6535
A_3     C     0.4786     0.2805     0.3977
A_2     C     0.7467     0.4915     0.0552
A_2     C     0.1649     0.7822     0.4119
A_2     C     0.4861     0.9787     0.4423
A_1     C     0.6111     0.7093     0.1831
A_2     C     0.5367     0.5421     0.2265
A_0     C     0.5136     0.2018     0.3252
A_2     C     0.8963     0.1734     0.2211
A_0     C     0.9514     0.0779     0.0604
A_0     C     0.3282     0.9589     0.2217
A_1     C     0.3198     0.0616     0.745
A_0     C     0.1007     0.4905     0.6361
A_0     C     0.3114     0.9262     0.9295
A_2     C     0.1083     0.5727     0.6077
A_1     C     0.1359     0.8203     0.4313
A_2     C     0.0093     0.0382     0.3282
A_1     C     0.997     0.5754     0.2024
A_3     C     0.3694     0.4386     0.3559
A_2     C     0.1508     0.2588     0.5143
A_3     C     0.8005     0.3231     0.8152
A_2     C     0.8579     0.241     0.65
A_3     C     0.2729     0.0862     0.2071
A_3     C     0.4173     0.0242     0.5097
A_2     C     0.856     0.8213     0.2301
A_0     C     0.203     0.361     0.6452
A_1     C     0.4348     0.8767     0.5099
A_1     C     0.8757     0.5164     0.0468
A_3     C     0.5585     0.8142     0.4398
A_2     C     0.1147     0.1033     0.8284
A_2     C     0.8917     0.1883     0.0275
A_2     C     0.2059     0.7117     0.0512
A_1     C     0.1539     0.413     0.0818
A_0     C     0.1986     0.984     0.999
A_1     C     0.812     0.7127     0.4176
A_1     C     0.4712     0.7194     0.9735
A_3     C     0.1255     0.7035     0.5037
A_1     C     0.4546     0.3424     0.706
A_0     C     0.1435     0.3143     0.6506
A_3     C     0.9225     0.2504     0.5353
A_0     C     0.3718     0.6916     0.0982
A_0     C     0.3759     0.4571     0.9853
A_2     C     0.7132     0.1723     0.7378
A_1     C     0.6106     0.6719     0.7507
A_1     C     0.4003     0.3801     0.664
A_1     C     0.5709     0.8085     0.5775
A_1     C     0.3371     0.1822     0.8191
A_3     C     0.8262     0.6924     0.1027
A_2     C     0.0328     0.9125     0.0832
A_2     C     0.3733     0.3315     0.4333
A_3     C     0.8213     0.0157     0.3307
A_0     C     0.2906     0.0319     0.7001
A_0     C     0.2317     0.5908     0.7369
A_3     C     0.4378     0.2781     0.7308
A_1     C     0.9688     0.562     0.0462
A_2     C     0.5042     0.5805     0.491
A_3     C     0.8006     0.277     0.0952
A_3     C     0.5406     0.029     0.5052
A_0     C     0.9493     0.1243     0.3501
A_3     C     0.1843     0.3405     0.2493
A_1     C     0.8607     0.6964     0.5007
A_3     C     0.0188     0.2604     0.739
A_0     C     0.2955     0.3783     0.053
A_1     C     0.1605     0.7656     0.6027
A_0     C     0.9087     0.4203     0.063
A_0     C     0.3522     0.1093     0.4939
A_0     C     0.117     0.688     0.3472
A_0     C     0.6282     0.5992     0.1431
A_1     C     0.4033     0.7208     0.5936
A_0     C     0.766     0.7025     0.6449
A_1     C     0.8475     0.8285     0.925
A_1     C     0.7902     0.2775     0.5263
A_3     C     0.6139     0.0376     0.1862
A_2     C     0.4367     0.6066     0.8283
A_1     C     0.5197     0.1813     0.5033
A_0     C     0.4981     0.2445     0.439
A_1     C     0.1409     0.8846     0.8696
A_0     C     0.3497     0.6406     0.1818
A_1     C     0.2347     0.4241     0.8426
A_3     C     0.8607     0.9394     0.1474
A_1     C     0.2219     0.4869     0.3459
A_0     C     0.7657     0.8246     0.4751
A_0     C     0.9162     0.3215     0.2816
A_3     C     0.0385     0.0813     0.5832
A_3     C     0.6965     0.7474     0.4342
A_0     C     0.6451     0.8304     0.7486
A_3     C     0.8406     0.1252     0.1544
A_0     C     0.4785     0.5586     0.171
A_3     C     0.1666     0.0028     0.4394
A_3     C     0.1223     0.7318     0.1959
A_3     C     0.7508     0.8519     0.8618
A_1     C     0.5607     0.9111     0.3286
A_3     C     0.1927     0.3054     0.9617
A_2     C     0.7089     0.5944     0.7668
A_0     C     0.5028     0.2096     0.5835
A_0     C     0.0413     0.6909     0.3416
A_1     C     0.7472     0.7947     0.0227
A_1     C     0.5161     0.8193     0.3247
A_2     C     0.5963     0.0422     0.5681
A_1     C     0.0217     0.1805     0.9033
A_3     C     0.4726     0.9575     0.8986
A_3     C     0.8051     0.9306     0.0503
A_0     C     0.0961     0.2968     0.0167
A_0     C     0.7566     0.5861     0.3037
A_3     C     0.9568     0.2766     0.3651
A_1     C     0.6357     0.0084     0.6538
A_3     C     0.6145     0.7482     0.8085
A_2     C     0.8493     0.4811     0.4549
A_2     C     0.3543     0.1155     0.2759
A_0     C     0.026     0.0062     0.168
A_0     C     0.15     0.9631     0.9085
A_0     C     0.0313     0.4697     0.6665
A_2     C     0.5491     0.304     0.2364
A_2     C     0.2844     0.7047     0.1602
A_3     C     0.1839     0.339     0.8851
A_2     C     0.5288     0.6658     0.6532
A_0     C     0.1732     0.132     0.7038
A_0     C     0.9865     0.1675     0.9356
A_1     C     0.5018     0.2798     0.0591
A_1     C     0.2458     0.9194     0.8531
A_3     C     0.0219     0.8906     0.3214
A_0     C     0.3096     0.4981     0.9956
A_3     C     0.2245     0.2029     0.8856
A_2     C     0.4262     0.3951     0.9862
A_2     C     0.9734     0.7534     0.7686
A_2     C     0.6523     0.3985     0.7522
A_0     C     0.9342     0.877     0.6943
A_1     C     0.5627     0.4372     0.1788
A_3     C     0.8938     0.4692     0.6754
A_0     C     0.4963     0.8694     0.5917
A_1     C     0.4716     0.4474     0.7019
A_1     C     0.5456     0.3658     0.9531
A_1     C     0.4814     0.7131     0.5181
A_1     C     0.6559     0.6296     0.9563
A_0     C     0.9933     0.0902     0.7071
A_2     C     0.372     0.8452     0.6287
A_3     C     0.4629     0.0796     0.0604
A_0     C     0.0331     0.037     0.4978
A_2     C     0.2674     0.9027     0.0677
A_1     C     0.5519     0.7426     0.2961
A_2     C     0.8301     0.3158     0.2106
A_2     C     0.7622     0.2113     0.9171
A_2     C     0.5611     0.6079     0.4499
A_1     C     0.847     0.1669     0.5093
A_2     C     0.4994     0.1879     0.9252
A_3     C     0.4156     0.3198     0.9684
A_1     C     0.3304     0.1863     0.3774
A_2     C     0.1086     0.0898     0.1438
A_1     C     0.1226     0.897     0.0366
A_2     C     0.6412     0.9792     0.1695
A_1     C     0.5588     0.4017     0.4772
A_3     C     0.6025     0.9338     0.8314
A_2     C     0.3425     0.4077     0.8628
A_1     C     0.347     0.1075     0.1519
A_1     C     0.3049     0.099     0.3091
A_1     C     0.586     0.0291     0.1999
A_1     C     0.4772     0.1256     0.9608
A_3     C     0.0891     0.4989     0.3093
A_1     C     0.6272     0.4369     0.4036
A_1     C     0.819     0.3326     0.4427
A_3     C     0.0645     0.4613     0.3453
A_3     C     0.9253     0.3154     0.1492
A_0     C     0.5022     0.6882     0.9174
A_1     C     0.6345     0.7261     0.994
A_3     C     0.1248     0.5762     0.0207
A_1     C     0.7458     0.9716     0.3949
A_0     C     0.9232     0.4016     0.7332
A_3     C     0.6777     0.2815     0.3878
A_1     C     0.8016     0.8409     0.0556
A_2     C     0.7061     0.4732     0.7261
A_1     C     0.2158     0.5564     0.6672
A_0     C     0.8907     0.9291     0.1996
A_2     C     0.0777     0.7898     0.491
A_3     C     0.2923     0.9168     0.7487
A_1     C     0.099     0.2901     0.9447
A_0     C     0.5839     0.0112     0.9591
A_0     C     0.0853     0.3985     0.4918
A_0     C     0.1229     0.9441     0.9736
A_3     C     0.8539     0.4171     0.033
A_1     C     0.054     0.6344     0.8444
A_2     C     0.3433     0.3819     0.9672
A_2     C     0.2576     0.3777     0.5973
A_3     C     0.7545     0.5569     0.0782
A_3     C     0.4157     0.388     0.4278
A_3     C     0.9546     0.2023     0.9893
A_2     C     0.7344     0.5663     0.6306
A_1     C     0.2494     0.4015     0.566
A_1     C     0.3526     0.875     0.103
A_0     C     0.6717     0.8831     0.4517
A_1     C     0.6561     0.0258     0.1774
A_2     C     0.7878     0.4805     0.5256
A_3     C     0.691     0.8222     0.1467
A_1     C     0.5497     0.1528     0.0842
A_1     C     0.6212     0.2387     0.358
A_2     C     0.4058     0.8175     0.9763
A_0     C     0.067     0.5295     0.6613
A_1     C     0.8778     0.1249     0.4519
A_1     C     0.6899     0.0492     0.5683
A_0     C     0.226     0.8031     0.7893
A_1     C     0.6548     0.7378     0.4642
A_0     C     0.3499     0.6243     0.8395
A_3     C     0.5485     0.9416     0.8237
A_1     C     0.6402     0.1723     0.2494
A_2     C     0.0674     0.7036     0.9837
A_3     C     0.0921     0.9517     0.2258
A_1     C     0.7722     0.005     0.4975
A_2     C     0.8493     0.3752     0.0812
A_3     C     0.1282     0.7403     0.5293
A_3     C     0.8178     0.4681     0.449
A_2     C     0.3267     0.5833     0.5689
A_1     C     0.2983     0.918     0.4594
A_1     C     0.1375     0.1649     0.2195
A_0     C     0.9519     0.1115     0.4212
A_2     C     0.0376     0.3     0.6192
A_0     C     0.3983     0.4946     0.079
A_2     C     0.0486     0.0214     0.6936
A_2     C     0.2559     0.0717     0.2254
A_3     C     0.0558     0.2462     0.3789
A_1     C     0.6846     0.7757     0.4198
A_0     C     0.3313     0.4747     0.9542
A_2     C     0.7817     0.2395     0.0165
A_3     C     0.0192     0.576     0.2759
A_2     C     0.1354     0.0756     0.524
A_0     C     0.3172     0.3608     0.7064
A_0     C     0.9508     0.8468     0.1391
A_3     C     0.4018     0.2642     0.0131
A_0     C     0.3491     0.2157     0.3139
A_2     C     0.265     0.8716     0.4439
A_1     C     0.1993     0.7556     0.3862
A_0     C     0.1364     0.5057     0.7316
A_1     C     0.2317     0.2425     0.2547
A_1     C     0.6336     0.5684     0.3338
A_0     C     0.8389     0.2657     0.2251
A_0     C     0.4538     0.9297     0.655
A_3     C     0.0603     0.6066     0.2828
A_0     C     0.4233     0.1357     0.9829
A_2     C     0.9265     0.7333     0.4781
A_2     C     0.3807     0.4427     0.2321
A_1     C     0.4477     0.4639     0.7877
A_3     C     0.3685     0.0288     0.7005
A_1     C     0.5319     0.3151     0.6147
A_3     C     0.7107     0.4376     0.1875
A_0     C     0.1316     0.717     0.1206
A_2     C     0.9633     0.77     0.8774
A_2     C     0.8116     0.4119     0.2263
A_3     C     0.9738     0.9216     0.8231
A_0     C     0.3021     0.4771     0.6347
A_2     C     0.0237     0.1497     0.4164
A_3     C     0.1884     0.3538     0.783
A_1     C     0.3308     0.2091     0.5121
A_2     C     0.3389     0.1786     0.8247
A_0     C     0.8242     0.1673     0.2126
A_0     C     0.7193     0.6645     0.9794
A_0     C     0.2557     0.4709     0.1062
A_0     C     0.372     0.909     0.371
A_1     C     0.3852     0.4707     0.2053
A_3     C     0.3812     0.2527     0.3437
A_3     C     0.903     0.636     0.6567
A_3     C     0.7381     0.2441     0.8472
A_2     C     0.312     0.253     0.6274
A_1     C     0.4334     0.9     0.6408
A_3     C     0.3773     0.7144     0.9535
A_3     C     0.9696     0.8903     0.3758
A_1     C     0.6548     0.7018     0.6804
A_1     C     0.7277     0.3776     0.8663
A_1     C     0.699     0.702     0.1862
A_2     C     0.8271     0.5388     0.4356
A_0     C     0.9752     0.4737     0.4955
A_1     C     0.0742     0.506     0.2281
A_0     C     0.7139     0.792     0.378
A_2     C     0.421     0.9365     0.6322
A_3     C     0.8263     0.3431     0.1069
A_0     C     0.1246     0.2968     0.6478
A_0     C     0.7184     0.0045     0.8593
A_1     C     0.8606     0.4148     0.0469
A_3     C     0.44     0.6215     0.3993
A_3     C     0.7143     0.5255     0.3678
A_0     C     0.1818     0.0226     0.4464
A_1     C     0.5281     0.3188     0.3547
A_1     C     0.5437     0.6229     0.5464
A_1     C     0.1751     0.4811     0.7139
A_1     C     0.5458     0.7169     0.6941
A_0     C     0.0054     0.2362     0.1707
A_0     C     0.6369     0.7801     0.3342
A_2     C     0.6885     0.9724     0.2825
A_1     C     0.7245     0.1241     0.9093
A_3     C     0.577     0.4884     0.2427
A_3     C     0.4558     0.1362     0.4576
A_1     C     0.9735     0.3535     0.4038
A_0     C     0.2582     0.4207     0.9645
A_3     C     0.7033     0.3458     0.8216
A_2     C     0.8473     0.0307     0.1588
A_2     C     0.5369     0.4477     0.0405
A_0     C     0.0612     0.1925     0.9576
A_1     C     0.4547     0.8213     0.4367
A_3     C     0.5761     0.2146     0.8498
A_3     C     0.5508     0.426     0.157
A_0     C     0.79     0.6209     0.1295
A_2     C     0.5185     0.9974     0.737
A_0     C     0.4894     0.2655     0.9874
A_2     C     0.4443     0.4877     0.8035
A_2     C     0.1255     0.0932     0.5739
A_1     C     0.1915     0.4269     0.9259
A_3     C     0.4939     0.5531     0.8212
A_1     C     0.2174     0.8447     0.9436
A_1     C     0.8826     0.3354     0.2924
A_3     C     0.8816     0.3004     0.0907
A_1     C     0.4908     0.7396     0.2267
A_1     C     0.2806     0.5825     0.9533
A_3     C     0.7084     0.0656     0.1833
A_1     C     0.4225     0.0805     0.198
A_3     C     0.6095     0.4563     0.7383
A_0     C     0.7731     0.1036     0.3996
A_3     C     0.094     0.1843     0.2631
A_2     C     0.645     0.5134     0.1636
A_2     C     0.5208     0.8395     0.6421
A_1     C     0.8026     0.5211     0.5451
A_1     C     0.7598     0.1976     0.8046
A_0     C     0.7255     0.4416     0.1187
A_2     C     0.2859     0.3622     0.4821
A_0     C     0.1063     0.0574     0.0588
A_0     C     0.7545     0.6215     0.3354
A_0     C     0.0258     0.7535     0.4785
A_2     C     0.4985     0.9805     0.7411
A_2     C     0.2664     0.7973     0.6083
A_1     C     0.2882     0.9086     0.7934
A_2     C     0.9281     0.2801     0.3543
A_1     C     0.7397     0.5191     0.2016
A_2     C     0.5057     0.5985     0.2581
A_0     C     0.7889     0.5736     0.1956
A_0     C     0.0592     0.8149     0.0599
A_1     C     0.7061     0.8831     0.9959
A_3     C     0.3924     0.3649     0.3658
A_3     C     0.7094     0.8543     0.981
A_2     C     0.6011     0.7608     0.4976
A_1     C     0.982     0.187     0.8153
A_2     C     0.3241     0.5081     0.3247
A_3     C     0.4573     0.6125     0.2054
A_2     C     0.7452     0.3461     0.947
A_0     C     0.8602     0.6316     0.76
A_3     C     0.7737     0.2138     0.0984
A_3     C     0.4271     0.6224     0.8883
A_0     C     0.4222     0.9345     0.2093
A_1     C     0.9456     0.9992     0.4817
A_1     C     0.8352     0.2281     0.1219
A_2     C     0.0666     0.3875     0.6089
A_0     C     0.1769     0.1035     0.4349
A_0     C     0.1206     0.8786     0.5397
A_1     C     0.6034     0.1099     0.41
A_1     C     0.3536     0.6785     0.7916
A_0     C     0.9762     0.0462     0.1284
A_2     C     0.1754     0.8     0.3543
A_3     C     0.167     0.6751     0.092
A_1     C     0.966     0.7917     0.0758
A_1     C     0.6911     0.3175     0.5469
A_1     C     0.782     0.1839     0.943
A_2     C     0.5729     0.8378     0.9191
A_1     C     0.9399     0.5279     0.8881
A_2     C     0.3591     0.5567     0.3272
A_0     C     0.4067     0.4164     0.0182
A_0     C     0.617     0.1624     0.0073
A_0     C     0.0862     0.873     0.4205
A_2     C     0.6372     0.9361     0.7964
A_3     C     0.7335     0.5169     0.3812
A_2     C     0.9772     0.3337     0.0628
A_3     C     0.3242     0.0259     0.4569
A_0     C     0.333     0.1839     0.6546
A_1     C     0.5653     0.9877     0.2531
A_3     C     0.622     0.3165     0.1331
A_1     C     0.2135     0.4638     0.3749
A_0     C     0.563     0.5631     0.1155
A_0     C     0.134     0.5728     0.0633
A_3     C     0.3948     0.1702     0.6356
A_2     C     0.6163     0.0936     0.301
A_1     C     0.166     0.8755     0.714
A_1     C     0.6889     0.249     0.5682
A_0     C     0.8669     0.2431     0.3432
A_1     C     0.7932     0.9146     0.6299
A_0     C     0.8357     0.2406     0.6661
A_2     C     0.4933     0.2711     0.8169
A_3     C     0.2942     0.2819     0.0223
A_3     C     0.2905     0.7763     0.0735
A_1     C     0.5839     0.8795     0.4599
A_1     C     0.81     0.2061     0.4869
A_3     C     0.7149     0.0964     0.7344
A_3     C     0.9269     0.069     0.0998
A_2     C     0.0526     0.3156     0.5586
A_1     C     0.2878     0.9646     0.9696
A_2     C     0.6881     0.2477     0.1555
A_3     C     0.7518     0.4495     0.4819
A_2     C     0.7193     0.5056     0.476
A_0     C     0.5028     0.2785     0.6513
A_3     C     0.3977     0.1113     0.8221
A_0     C     0.9521     0.1099     0.1198
A_3     C     0.2834     0.8682     0.4558
A_1     C     0.1397     0.736     0.0518
A_3     C     0.2903     0.2465     0.7073
A_3     C     0.1205     0.5303     0.9461
A_1     C     0.4923     0.7622     0.4229
A_0     C     0.0357     0.4302     0.4481
A_0     C     0.236     0.2289     0.5563
A_0     C     0.3871     0.195     0.2543
A_3     C     0.6696     0.6807     0.3343
A_3     C     0.1919     0.6407     0.2755
A_3     C     0.8528     0.7861     0.1578
A_2     C     0.7703     0.7078     0.6305
A_0     C     0.577     0.5153     0.3989
A_0     C     0.2678     0.26     0.3797
A_2     C     0.312     0.3648     0.0785
A_2     C     0.6115     0.6908     0.5167
A_1     C     0.2373     0.6914     0.1193
A_1     C     0.5349     0.8931     0.1085
A_0     C     0.5513     0.9289     0.9793
A_0     C     0.5722     0.8862     0.5076
A_0     C     0.2199     0.41     0.9628
A_1     C     0.59     0.5619     0.6273
A_2     C     0.6108     0.4032     0.2589
A_2     C     0.0491     0.4768     0.9076
A_0     C     0.1105     0.9606     0.3405
A_3     C     0.7652     0.175     0.8169
A_3     C     0.919     0.8294     0.9401
A_2     C     0.9815     0.2622     0.2366
A_3     C     0.459     0.8123     0.4411
A_2     C     0.9853     0.6196     0.4538
A_0     C     0.0965     0.8225     0.8033
A_3     C     0.5831     0.0215     0.4581
A_1     C     0.2469     0.7849     0.7393
A_0     C     0.0203     0.2109     0.6404
A_3     C     0.1499     0.4557     0.2835
A_3     C     0.3023     0.4504     0.1967
A_3     C     0.6763     0.9815     0.3936
A_3     C     0.4639     0.0139     0.7364
A_1     C     0.6439     0.9066     0.2983
A_1     C     0.1225     0.0436     0.7041
A_2     C     0.2981     0.9044     0.308
A_0     C     0.6437     0.6163     0.2142
A_3     C     0.3384     0.8078     0.1624
A_3     C     0.5022     0.429     0.8476
A_3     C     0.2618     0.76     0.472
A_0     C     0.7267     0.4456     0.8879
A_0     C     0.2344     0.303     0.778
A_1     C     0.2558     0.0718     0.5624
A_2     C     0.397     0.1912     0.2879
A_1     C     0.6617     0.2737     0.7252
A_1     C     0.5979     0.9786     0.0098
A_1     C     0.4426     0.6155     0.4206
A_0     C     0.6464     0.1799     0.9208
A_2     C     0.5463     0.6559     0.0147
A_2     C     0.5502     0.0524     0.8081
A_2     C     0.8243     0.1518     0.2371
A_2     C     0.4466     0.1265     0.199
A_3     C     0.5881     0.0778     0.088
A_0     C     0.5936     0.9659     0.646
A_2     C     0.6959     0.6173     0.6347
A_1     C     0.828     0.0049     0.137
A_0     C     0.3338     0.7679     0.3773
A_1     C     0.1193     0.4012     0.8254
A_1     C     0.2136     0.7742     0.7834
A_1     C     0.4128     0.6889     0.1171
A_2     C     0.7157     0.5403     0.3449
A_3     C     0.7851     0.7411     0.2408
A_3     C     0.1613     0.9767     0.2968
A_0     C     0.9913     0.1622     0.3046
A_1     C     0.7325     0.1583     0.7039
A_2     C     0.2287     0.0696     0.2179
A_1     C     0.2856     0.7008     0.5796
A_0     C     0.8347     0.2244     0.2467
A_3     C     0.3283     0.9966     0.5512
A_3     C     0.8502     0.0016     0.3706
A_3     C     0.3219     0.4019     0.8748
A_0     C     0.0569     0.9637     0.8798
A_1     C     0.8932     0.6708     0.6151
A_2     C     0.4554     0.2621     0.1817
A_3     C     0.7118     0.75     0.9298
A_3     C     0.2396     0.2067     0.2464
A_0     C     0.7793     0.0187     0.9088
A_1     C     0.353     0.8681     0.415
A_2     C     0.0418     0.1462     0.2323
A_1     C     0.9134     0.2053     0.5394
A_2     C     0.4561     0.601     0.5604
A_0     C     0.7329     0.7279     0.1714
A_3     C     0.8098     0.5434     0.9317
A_0     C     0.99     0.8363     0.1821
A_3     C     0.708     0.4104     0.9901
A_2     C     0.3993     0.1439     0.0172
A_2     C     0.0549     0.6685     0.3605
A_0     C     0.6121     0.5682     0.4463
A_1     C     0.2795     0.8025     0.1879
A_3     C     0.0187     0.9623     0.2945
A_1     C     0.1327     0.1486     0.0038
A_2     C     0.7189     0.4739     0.1623
A_0     C     0.7608     0.9723     0.4972
A_0     C     0.9409     0.6761     0.6396
A_3     C     0.9828     0.892     0.1833
A_0     C     0.7631     0.8178     0.733
A_2     C     0.636     0.3569     0.3744
A_0     C     0.8033     0.8802     0.1133
A_3     C     0.9761     0.6231     0.2261
A_0     C     0.2933     0.5196     0.1121
A_0     C     0.2574     0.3711     0.884
A_2     C     0.4071     0.4337     0.6934
A_2     C     0.0165     0.2655     0.5643
A_3     C     0.7803     0.3428     0.537
A_3     C     0.884     0.2709     0.5674
A_0     C     0.1255     0.5596     0.2345
A_2     C     0.7109     0.9208     0.5694
A_0     C     0.8311     0.3023     0.0972
A_2     C     0.3773     0.9257     0.9822
A_0     C     0.0874     0.5855     0.9451
A_0     C     0.4967     0.2935     0.6821
A_1     C     0.6292     0.7408     0.83
A_2     C     0.4629     0.8207     0.6788
A_0     C     0.678     0.2733     0.0042
A_3     C     0.8228     0.9374     0.1656
A_2     C     0.0271     0.4266     0.7517
A_0     C     0.8907     0.4929     0.758
A_1     C     0.8728     0.9063     0.495
A_2     C     0.2124     0.5538     0.9592
A_0     C     0.9451     0.4686     0.7509
A_0     C     0.1388     0.8631     0.5564
A_0     C     0.8369     0.3781     0.3185
A_3     C     0.9867     0.1726     0.304
A_0     C     0.2614     0.8836     0.4934
A_0     C     0.7154     0.7901     0.8626
A_2     C     0.1114     0.2119     0.8603
A_0     C     0.1262     0.1294     0.4998
A_0     C     0.8663     0.1529     0.6418
A_1     C     0.102     0.9079     0.9117
A_1     C     0.6825     0.9753     0.1373
A_2     C     0.981     0.143     0.3464
A_3     C     0.2411     0.0851     0.1973
A_2     C     0.6664     0.1859     0.5582
A_1     C     0.4234     0.3535     0.7125
A_1     C     0.0342     0.4888     0.677
A_2     C     0.1773     0.7387     0.9615
A_0     C     0.3485     0.0221     0.5874
A_2     C     0.6904     0.5785     0.3684
A_2     C     0.8325     0.3053     0.4323
A_2     C     0.2882     0.2269     0.3165
A_2     C     0.147     0.0847     0.3966
A_2     C     0.8521     0.7299     0.0445
A_0     C     0.2595     0.5876     0.5027
A_3     C     0.6732     0.0339     0.4195
A_2     C     0.295     0.775     0.1961
A_3     C     0.4464     0.4139     0.1066
A_1     C     0.6397     0.1561     0.205
A_2     C     0.2625     0.8734     0.4616
A_3     C     0.1818     0.692     0.1937
A_3     C     0.785     0.0024     0.6644
A_2     C     0.0249     0.4571     0.5993
A_3     C     0.4942     0.7739     0.4383
A_3     C     0.9992     0.131     0.4238
A_2     C     0.3329     0.1106     0.5656
A_1     C     0.6313     0.9     0.3019
A_3     C     0.9262     0.1575     0.5797
A_0     C     0.4362     0.4759     0.9877
A_2     C     0.3918     0.6695     0.7522
A_0     C     0.4327     0.3802     0.0419
A_3     C     0.2523     0.4847     0.945
A_2     C     0.8061     0.7008     0.9494
A_3     C     0.8889     0.4897     0.6257
A_3     C     0.6318     0.2824     0.4855
A_3     C     0.2109     0.1537     0.071
A_2     C     0.9974     0.7191     0.4165
A_3     C     0.8015     0.497     0.7639
A_0     C     0.9489     0.9557     0.2375
A_2     C     0.1161     0.9073     0.2325
A_3     C     0.4543     0.3993     0.2439
A_3     C     0.8861     0.8177     0.129
A_0     C     0.0663     0.7095     0.8441
A_2     C     0.6983     0.5059     0.2069
A_3     C     0.8131     0.2189     0.4729
A_2     C     0.8536     0.2777     0.782
A_3     C     0.0082     0.9198     0.3814
A_0     C     0.5257     0.1444     0.1068
A_0     C     0.1939     0.1491     0.448
A_2     C     0.9728     0.0489     0.5335
A_3     C     0.3829     0.0978     0.8555
A_1     C     0.7454     0.0041     0.2267
A_3     C     0.3657     0.3673     0.1945
A_0     C     0.9595     0.9985     0.3046
A_1     C     0.2067     0.7617     0.8823
A_3     C     0.8689     0.7851     0.8681
A_1     C     0.8241     0.9305     0.1551
A_1     C     0.5042     0.0907     0.8025
A_3     C     0.0075     0.1482     0.3827
A_0     C     0.5438     0.0584     0.9419
A_1     C     0.0903     0.0406     0.2984
A_1     C     0.957     0.3314     0.0807
A_2     C     0.1284     0.3236     0.4453
A_3     C     0.5547     0.3624     0.3679
A_1     C     0.0809     0.1861     0.8181
A_1     C     0.9063     0.854     0.2432
A_0     C     0.953     0.7695     0.1328
A_0     C     0.0247     0.4097     0.7815
A_2     C     0.5382     0.2056     0.7698
A_0     C     0.6941     0.3628     0.2052
A_1     C     0.2169     0.9417     0.8402
A_3     C     0.9667     0.4047     0.2023
A_2     C     0.9026     0.2544     0.2215
A_2     C     0.2299     0.4203     0.6837
A_0     C     0.4231     0.7769     0.3255
A_2     C     0.38     0.4366     0.6172
A_2     C     0.2197     0.9404     0.3287
A_1     C     0.0133     0.1091     0.5324
A_2     C     0.4821     0.2303     0.1172
A_1     C     0.2937     0.0692     0.8872
A_1     C     0.4215     0.1757     0.6526
A_1     C     0.5038     0.5585     0.8854
A_0     C     0.321     0.4833     0.3686
A_1     C     0.2172     0.8646     0.982
A_1     C     0.5391     0.2569     0.9183
A_3     C     0.0367     0.5623     0.5166
A_1     C     0.7595     0.0458     0.6065
A_1     C     0.0665     0.799     0.3756
A_3     C     0.3423     0.2986     0.8891
A_1     C     0.6581     0.1293     0.3825
A_1     C     0.2441     0.7423     0.1607
A_0     C     0.3458     0.8982     0.8329
A_1     C     0.8943     0.3576     0.994
A_3     C     0.0533     0.8906     0.5846
A_2     C     0.2953     0.7616     0.8257
A_2     C     0.4742     0.2777     0.3487
A_1     C     0.9232     0.7235     0.3342
A_2     C     0.3715     0.8543     0.2799
A_3     C     0.4732     0.6792     0.8208
A_0     C     0.8805     0.8852     0.1778
A_2     C     0.9123     0.6674     0.6058
A_3     C     0.8355     0.8718     0.3923
A_0     C     0.9492     0.9139     0.9147
A_1     C     0.4878     0.8369     0.155
A_2     C     0.6411     0.364     0.5584
A_1     C     0.9289     0.4617     0.2251
A_1     C     0.919     0.9968     0.5941
A_0     C     0.8868     0.3403     0.5798
A_2     C     0.6046     0.0376     0.7781
A_1     C     0.5412     0.0626     0.6099
A_3     C     0.1084     0.307     0.2091
A_3     C     0.6025     0.1022     0.1661
A_3     C     0.244     0.7787     0.5365
A_3     C     0.3546     0.6998     0.3756
A_0     C     0.0545     0.5825     0.3326
A_0     C     0.2288     0.2615     0.5523
A_3     C     0.543     0.6612     0.4771
A_1     C     0.0314     0.2708     0.3004
A_3     C     0.8295     0.7707     0.3592
A_1     C     0.6007     0.6413     0.4549
A_1     C     0.0769     0.4074     0.0409
A_3     C     0.8196     0.0285     0.3773
A_2     C     0.2634     0.5498     0.2479
A_3     C     0.7717     0.4538     0.6538
A_1     C     0.5555     0.1909     0.4777
A_2     C     0.6924     0.2474     0.7442
A_1     C     0.8894     0.3027     0.2591
A_3     C     0.0552     0.4925     0.1667
A_2     C     0.9128     0.1782     0.0807
A_1     C     0.6048     0.467     0.936
A_3     C     0.3679     0.7225     0.8595
A_3     C     0.1594     0.481     0.2118
A_0     C     0.3215     0.4516     0.5427
A_0     C     0.1461     0.7435     0.4496
A_2     C     0.003     0.0636     0.2535
A_3     C     0.8902     0.9366     0.9009
A_1     C     0.5377     0.6997     0.9946
A_1     C     0.5831     0.282     0.0727
A_3     C     0.8507     0.2728     0.0231
A_2     C     0.6383     0.683     0.5481
A_0     C     0.5838     0.0362     0.9472
A_1     C     0.3695     0.9297     0.525
A_2     C     0.3219     0.5539     0.0157
A_1     C     0.3665     0.9238     0.7736
A_3     C     0.0381     0.1966     0.997
A_2     C     0.4157     0.1497     0.0162
A_1     C     0.8991     0.9021     0.6814
A_2     C     0.304     0.3047     0.1594
A_2     C     0.6748     0.4965     0.9665
A_0     C     0.6452     0.9752     0.748
A_1     C     0.4917     0.765     0.0662
A_0     C     0.2701     0.6477     0.2029
A_1     C     0.9459     0.8079     0.1952
A_1     C     0.7715     0.369     0.756
A_0     C     0.8015     0.9005     0.3354
A_2     C     0.0066     0.7615     0.1966
A_2     C     0.0718     0.109     0.3711
A_3     C     0.6388     0.1241     0.0176
A_1     C     0.2588     0.5474     0.5217
A_3     C     0.6366     0.9699     0.9798
A_2     C     0.8176     0.9814     0.4385
A_3     C     0.3406     0.241     0.4833
A_0     C     0.9236     0.3002     0.1612
A_1     C     0.1268     0.3149     0.4815
A_1     C     0.5496     0.9851     0.5033
A_3     C     0.0996     0.0556     0.1196
A_2     C     0.84     0.0583     0.3053
A_0     C     0.5622     0.3429     0.7128
A_3     C     0.6157     0.9973     0.4782
A_1     C     0.4938     0.3874     0.6952
A_3     C     0.8621     0.646     0.5767
A_2     C     0.5236     0.1167     0.2254
