MAT-9

loop_
_symmetry_equiv_pos_as_xyz
  x,y,z
_cell_length_a          42.286
_cell_length_b          41.3959
_cell_length_c          26.8914
_cell_angle_alpha       90.0000
_cell_angle_beta        90.0000
_cell_angle_gamma       90.0000
loop_
_atom_site_label
_atom_site_type_symbol
_atom_site_fract_x
_atom_site_fract_y
_atom_site_fract_z
A_0     C     0.4976     0.79     0.5931
A_3     C     0.4849     0.3896     0.2745
A_0     C     0.9699     0.6857     0.5509
A_1     C     0.9935     0.6837     0.4894
A_2     C     0.8691     0.6534     0.795
A_0     C     0.8143     0.5179     0.1226
A_2     C     0.4502     0.712     0.2373
A_1     C     0.5026     0.1924     0.0221
A_2     C     0.0445     0.7632     0.7315
A_3     C     0.5425     0.3834     0.0294
A_1     C     0.8683     0.3333     0.9913
A_1     C     0.5479     0.6006     0.3388
A_1     C     0.257     0.2731     0.4884
A_1     C     0.7799     0.5501     0.7513
A_3     C     0.9864     0.6146     0.6003
A_1     C     0.5331     0.945     0.5892
A_0     C     0.6554     0.4586     0.5028
A_1     C     0.7188     0.0321     0.606
A_1     C     0.3128     0.294     0.9587
A_0     C     0.9061     0.0494     0.8672
A_3     C     0.2931     0.0152     0.1671
A_1     C     0.3999     0.1522     0.4192
A_3     C     0.986     0.9701     0.4326
A_0     C     0.7886     0.4766     0.5539
A_1     C     0.9721     0.0285     0.5128
A_2     C     0.8297     0.2088     0.2153
A_1     C     0.34     0.9719     0.7461
A_3     C     0.9025     0.8119     0.1299
A_0     C     0.2101     0.8729     0.3891
A_0     C     0.4037     0.0621     0.3151
A_1     C     0.0266     0.6669     0.5359
A_3     C     0.5545     0.0826     0.04
A_1     C     0.6856     0.7255     0.9818
A_1     C     0.6558     0.9616     0.2048
A_0     C     0.7482     0.8358     0.2206
A_3     C     0.3187     0.8303     0.4703
A_3     C     0.7701     0.7072     0.0996
A_1     C     0.0549     0.6011     0.5809
A_3     C     0.1395     0.1429     0.1303
A_3     C     0.2017     0.3818     0.3038
A_3     C     0.6603     0.1441     0.4251
A_2     C     0.245     0.338     0.3466
A_2     C     0.097     0.8563     0.7112
A_2     C     0.6291     0.7174     0.5512
A_2     C     0.9068     0.8854     0.9249
A_3     C     0.2553     0.4355     0.2485
A_3     C     0.5065     0.6431     0.9455
A_3     C     0.7461     0.7505     0.4395
A_1     C     0.0332     0.943     0.7991
A_2     C     0.0768     0.2822     0.1291
A_2     C     0.8235     0.5753     0.7166
A_0     C     0.1189     0.3854     0.1389
A_0     C     0.6134     0.9082     0.5035
A_2     C     0.399     0.0527     0.8952
A_0     C     0.4966     0.2279     0.8973
A_0     C     0.7778     0.2225     0.5977
A_0     C     0.9692     0.645     0.5968
A_0     C     0.6304     0.9104     0.8931
A_3     C     0.9004     0.1421     0.6636
A_1     C     0.2836     0.185     0.4666
A_1     C     0.8816     0.8036     0.2846
A_1     C     0.7775     0.4352     0.7064
A_2     C     0.2011     0.3267     0.6784
A_3     C     0.2401     0.2468     0.3508
A_1     C     0.1776     0.8715     0.7716
A_2     C     0.6608     0.0733     0.6093
A_2     C     0.8422     0.6085     0.4105
A_1     C     0.3658     0.7092     0.9869
A_0     C     0.1861     0.9166     0.3945
A_2     C     0.3947     0.2965     0.94
A_1     C     0.971     0.4959     0.2682
A_1     C     0.2963     0.3224     0.4508
A_0     C     0.2234     0.3817     0.5308
A_0     C     0.7378     0.2071     0.6431
A_1     C     0.1187     0.5016     0.4679
A_2     C     0.5127     0.7551     0.7794
A_0     C     0.6145     0.6561     0.3034
A_1     C     0.7722     0.7994     0.6771
A_3     C     0.2798     0.2166     0.9026
A_3     C     0.0856     0.1852     0.5321
A_3     C     0.4609     0.6959     0.9196
A_0     C     0.7005     0.2182     0.399
A_3     C     0.0112     0.7243     0.0566
A_3     C     0.1844     0.6013     0.4812
A_1     C     0.5557     0.9962     0.1451
A_3     C     0.5476     0.2827     0.3096
A_0     C     0.3779     0.758     0.3112
A_2     C     0.5206     0.2323     0.7868
A_0     C     0.8503     0.2982     0.7155
A_0     C     0.976     0.0931     0.7375
A_2     C     0.5818     0.9803     0.2205
A_0     C     0.8461     0.6578     0.5602
A_3     C     0.623     0.5674     0.287
A_3     C     0.1988     0.559     0.2276
A_1     C     0.7526     0.8096     0.3011
A_2     C     0.022     0.5884     0.7846
A_3     C     0.0017     0.9372     0.2448
A_0     C     0.5772     0.2162     0.2081
A_1     C     0.013     0.7805     0.2146
A_2     C     0.6122     0.9117     0.6612
A_0     C     0.6167     0.2711     0.4919
A_3     C     0.9893     0.6294     0.2351
A_2     C     0.0878     0.7455     0.7526
A_3     C     0.1077     0.5507     0.0688
A_0     C     0.287     0.0905     0.3799
A_1     C     0.1946     0.5366     0.7166
A_3     C     0.3971     0.5833     0.8018
A_2     C     0.7413     0.9507     0.0938
A_2     C     0.6325     0.5866     0.1968
A_0     C     0.4793     0.1598     0.0971
A_0     C     0.8095     0.8751     0.01
A_0     C     0.6851     0.7687     0.6034
A_0     C     0.9465     0.0501     0.4419
A_0     C     0.6255     0.827     0.8651
A_2     C     0.9253     0.8042     0.1369
A_0     C     0.1067     0.8879     0.6892
A_3     C     0.4107     0.1531     0.2343
A_0     C     0.898     0.6064     0.5587
A_0     C     0.9932     0.562     0.5871
A_3     C     0.524     0.9925     0.8409
A_1     C     0.5188     0.2391     0.9109
A_1     C     0.8436     0.5542     0.9232
A_1     C     0.6652     0.9122     0.5445
A_1     C     0.2839     0.914     0.8684
A_1     C     0.1399     0.6877     0.5455
A_3     C     0.2386     0.9135     0.1089
A_2     C     0.8822     0.1262     0.199
A_0     C     0.0905     0.5993     0.6381
A_3     C     0.4481     0.7606     0.421
A_1     C     0.3738     0.4345     0.1349
A_0     C     0.0428     0.528     0.668
A_2     C     0.7277     0.6012     0.9903
A_2     C     0.6913     0.7058     0.6675
A_1     C     0.4196     0.8747     0.2846
A_3     C     0.8529     0.4155     0.6313
A_1     C     0.1129     0.1297     0.8409
A_2     C     0.1695     0.438     0.0721
A_1     C     0.5633     0.076     0.7967
A_1     C     0.6261     0.557     0.6549
A_2     C     0.9774     0.3474     0.9538
A_3     C     0.5445     0.3042     0.4219
A_3     C     0.2547     0.8435     0.4217
A_3     C     0.8127     0.0917     0.9301
A_3     C     0.6218     0.1724     0.1638
A_0     C     0.7759     0.8083     0.9402
A_0     C     0.2366     0.6552     0.5689
A_3     C     0.3285     0.0414     0.343
A_0     C     0.3697     0.8938     0.5365
A_1     C     0.6376     0.275     0.6424
A_3     C     0.1705     0.8903     0.5698
A_3     C     0.1462     0.6258     0.8487
A_1     C     0.5499     0.1027     0.1188
A_1     C     0.4778     0.6487     0.2216
A_0     C     0.3901     0.1383     0.3288
A_2     C     0.5926     0.5677     0.4789
A_2     C     0.3393     0.4628     0.3501
A_2     C     0.5216     0.608     0.9152
A_2     C     0.1904     0.7055     0.6423
A_1     C     0.0394     0.2181     0.0947
A_3     C     0.8434     0.6244     0.8767
A_0     C     0.4006     0.9201     0.8063
A_3     C     0.5879     0.1562     0.7816
A_3     C     0.538     0.7326     0.0908
A_0     C     0.0164     0.801     0.6464
A_2     C     0.7902     0.8836     0.1746
A_3     C     0.6662     0.3744     0.3876
A_3     C     0.414     0.2602     0.1266
A_0     C     0.197     0.7934     0.5397
A_3     C     0.964     0.9448     0.3727
A_1     C     0.6366     0.5462     0.6002
A_3     C     0.2505     0.0574     0.8937
A_3     C     0.6977     0.4241     0.9042
A_0     C     0.535     0.884     0.0068
A_1     C     0.7403     0.9375     0.4544
A_3     C     0.03     0.2552     0.3304
A_0     C     0.2984     0.3048     0.9035
A_2     C     0.257     0.9662     0.5284
A_1     C     0.8589     0.2385     0.167
A_3     C     0.6287     0.6961     0.6444
A_2     C     0.4837     0.9222     0.9858
A_1     C     0.2349     0.7463     0.6855
A_3     C     0.9038     0.8763     0.2063
A_3     C     0.2467     0.1332     0.4204
A_0     C     0.9005     0.9833     0.0203
A_2     C     0.2053     0.5504     0.3749
A_0     C     0.6246     0.2508     0.4268
A_0     C     0.1091     0.895     0.2693
A_0     C     0.0108     0.2655     0.5594
A_2     C     0.2381     0.5566     0.7129
A_0     C     0.3327     0.8953     0.0643
A_3     C     0.1717     0.3183     0.6009
A_3     C     0.6659     0.4669     0.9501
A_3     C     0.547     0.6552     0.8545
A_1     C     0.1026     0.335     0.1033
A_0     C     0.9412     0.793     0.7778
A_2     C     0.3824     0.4756     0.4456
A_2     C     0.5898     0.1492     0.5026
A_3     C     0.9323     0.8128     0.9922
A_2     C     0.539     0.2146     0.5448
A_3     C     0.8672     0.3905     0.273
A_1     C     0.74     0.6207     0.9231
A_1     C     0.7813     0.0312     0.967
A_3     C     0.3728     0.8731     0.4402
A_1     C     0.3725     0.3946     0.913
A_2     C     0.6493     0.5891     0.0368
A_0     C     0.0214     0.3441     0.415
A_3     C     0.0816     0.9355     0.8987
A_3     C     0.2707     0.8671     0.6674
A_1     C     0.5629     0.0935     0.1708
A_2     C     0.8987     0.9345     0.1003
A_0     C     0.481     0.2026     0.7004
A_3     C     0.4832     0.1592     0.1208
A_3     C     0.4908     0.6391     0.4806
A_3     C     0.7189     0.0152     0.9495
A_3     C     0.9043     0.4186     0.464
A_0     C     0.9048     0.4949     0.5169
A_3     C     0.4611     0.3175     0.8388
A_2     C     0.6306     0.2082     0.8277
A_2     C     0.9103     0.4501     0.7562
A_3     C     0.0573     0.5475     0.6171
A_0     C     0.6971     0.6941     0.0472
A_3     C     0.0258     0.3065     0.5321
A_2     C     0.131     0.9077     0.7217
A_3     C     0.0673     0.7057     0.0007
A_3     C     0.1513     0.4402     0.7402
A_3     C     0.7024     0.7913     0.2236
A_0     C     0.5126     0.1354     0.3908
A_0     C     0.8654     0.2182     0.8197
A_0     C     0.1172     0.6582     0.2853
A_1     C     0.3059     0.1203     0.4846
A_3     C     0.9871     0.6847     0.3454
A_3     C     0.4431     0.678     0.1045
A_1     C     0.5505     0.4907     0.9185
A_2     C     0.7145     0.4657     0.8215
A_1     C     0.8205     0.8817     0.7172
A_1     C     0.0098     0.8613     0.4403
A_1     C     0.8483     0.6393     0.2704
A_1     C     0.2753     0.7304     0.4365
A_3     C     0.7008     0.1904     0.3512
A_0     C     0.2438     0.1946     0.3529
A_2     C     0.8961     0.1401     0.2275
A_2     C     0.6593     0.8745     0.2458
A_2     C     0.7185     0.4063     0.6997
A_2     C     0.246     0.2494     0.3946
A_1     C     0.4029     0.8063     0.6509
A_1     C     0.9674     0.7524     0.0429
A_3     C     0.4953     0.5136     0.7366
A_1     C     0.6164     0.8168     0.8004
A_2     C     0.8687     0.8015     0.3035
A_3     C     0.2598     0.7325     0.6173
A_1     C     0.1409     0.6702     0.2024
A_3     C     0.8137     0.8293     0.6932
A_1     C     0.2742     0.1562     0.214
A_1     C     0.8869     0.5276     0.9944
A_1     C     0.9673     0.8651     0.2187
A_0     C     0.741     0.1542     0.373
A_3     C     0.9405     0.8306     0.3038
A_1     C     0.9064     0.6461     0.7069
A_1     C     0.8891     0.0864     0.0841
A_2     C     0.4302     0.5374     0.205
A_1     C     0.432     0.6998     0.1925
A_1     C     0.0273     0.0592     0.1624
A_2     C     0.6438     0.9852     0.2421
A_2     C     0.3689     0.8749     0.8468
A_0     C     0.9855     0.7226     0.8037
A_2     C     0.241     0.2266     0.5628
A_2     C     0.8582     0.4032     0.0285
A_2     C     0.7583     0.1501     0.9281
A_1     C     0.0239     0.8707     0.8183
A_1     C     0.1893     0.2566     0.618
A_3     C     0.5736     0.2183     0.3447
A_0     C     0.9281     0.3374     0.128
A_2     C     0.7059     0.2952     0.5335
A_3     C     0.4028     0.218     0.7446
A_1     C     0.5311     0.7519     0.0402
A_2     C     0.4582     0.4046     0.3071
A_0     C     0.2032     0.42     0.6053
A_0     C     0.9821     0.7724     0.3198
A_1     C     0.6728     0.4229     0.9764
A_0     C     0.9015     0.0247     0.0462
A_2     C     0.6851     0.2984     0.8523
A_1     C     0.2005     0.7984     0.6586
A_2     C     0.9483     0.3111     0.6063
A_3     C     0.992     0.5995     0.0582
A_2     C     0.6762     0.4173     0.5393
A_0     C     0.8898     0.9784     0.5735
A_0     C     0.1757     0.6075     0.1281
A_0     C     0.1772     0.3072     0.1824
A_2     C     0.8976     0.4883     0.6098
A_0     C     0.2606     0.6683     0.2398
A_0     C     0.845     0.1723     0.2999
A_2     C     0.095     0.7555     0.7333
A_3     C     0.2095     0.6787     0.3979
A_1     C     0.2254     0.1481     0.8337
A_1     C     0.5833     0.0135     0.892
A_1     C     0.1609     0.1776     0.8439
A_0     C     0.42     0.0282     0.2672
A_2     C     0.4576     0.3202     0.1606
A_1     C     0.7823     0.2036     0.517
A_3     C     0.6488     0.9168     0.4729
A_2     C     0.3134     0.2014     0.9317
A_1     C     0.995     0.6744     0.4087
A_2     C     0.6644     0.718     0.4152
A_2     C     0.2491     0.3654     0.4082
A_3     C     0.3124     0.6141     0.0426
A_1     C     0.2348     0.2548     0.6858
A_3     C     0.6546     0.5157     0.5201
A_1     C     0.5378     0.7265     0.3993
A_2     C     0.1597     0.8957     0.4284
A_1     C     0.935     0.8924     0.0375
A_1     C     0.8838     0.6607     0.5933
A_2     C     0.7751     0.3193     0.5553
A_1     C     0.1873     0.994     0.0405
A_0     C     0.6629     0.9165     0.3645
A_3     C     0.6765     0.9117     0.0905
A_0     C     0.1162     0.9809     0.9273
A_2     C     0.3018     0.4122     0.9067
A_0     C     0.8382     0.7094     0.9766
A_0     C     0.2764     0.1554     0.2356
A_0     C     0.0483     0.6519     0.1212
A_1     C     0.6898     0.9401     0.5344
A_1     C     0.9476     0.9227     0.4964
A_1     C     0.6119     0.8783     0.0987
A_2     C     0.7745     0.8623     0.8631
A_2     C     0.2792     0.9642     0.5218
A_1     C     0.0461     0.8764     0.0191
A_2     C     0.7479     0.1571     0.6343
A_2     C     0.203     0.2651     0.3986
A_1     C     0.5364     0.796     0.6339
A_2     C     0.454     0.334     0.1231
A_2     C     0.1297     0.6169     0.8504
A_0     C     0.1965     0.7314     0.0858
A_2     C     0.2932     0.7305     0.399
A_2     C     0.8877     0.7006     0.8553
A_2     C     0.2947     0.6537     0.2576
A_1     C     0.7652     0.8879     0.4667
A_0     C     0.6345     0.5937     0.6089
A_0     C     0.8342     0.484     0.0624
A_3     C     0.4701     0.8779     0.0897
A_1     C     0.553     0.4721     0.7765
A_2     C     0.1812     0.5355     0.8289
A_0     C     0.5336     0.7656     0.8031
A_3     C     0.3146     0.5281     0.8057
A_1     C     0.3492     0.24     0.1776
A_3     C     0.5979     0.0583     0.3792
A_1     C     0.5107     0.6929     0.247
A_2     C     0.602     0.906     0.17
A_1     C     0.1133     0.7617     0.3454
A_1     C     0.2483     0.2385     0.9728
A_0     C     0.9269     0.2414     0.58
A_1     C     0.1277     0.7982     0.283
A_0     C     0.6669     0.0808     0.9177
A_3     C     0.5164     0.5466     0.0161
A_0     C     0.595     0.1389     0.1982
A_3     C     0.5683     0.6127     0.693
A_3     C     0.3194     0.44     0.786
A_0     C     0.2882     0.2537     0.2764
A_0     C     0.7278     0.2505     0.1765
A_2     C     0.868     0.4739     0.026
A_2     C     0.523     0.0291     0.2369
A_2     C     0.2127     0.1588     0.5917
A_1     C     0.6138     0.3457     0.8181
A_3     C     0.4516     0.8832     0.757
A_1     C     0.6338     0.026     0.259
A_0     C     0.6087     0.1579     0.3666
A_2     C     0.2142     0.8996     0.8637
A_2     C     0.1952     0.6848     0.2588
A_1     C     0.8287     0.7504     0.0266
A_3     C     0.2413     0.3557     0.2284
A_2     C     0.0621     0.6816     0.6321
A_3     C     0.2087     0.4322     0.7095
A_2     C     0.1305     0.2309     0.9027
A_2     C     0.8612     0.2773     0.1095
A_2     C     0.9312     0.4771     0.6228
A_1     C     0.6668     0.6397     0.3559
A_3     C     0.161     0.0397     0.4287
A_2     C     0.1502     0.9201     0.4524
A_3     C     0.1715     0.3444     0.5815
A_0     C     0.6446     0.9566     0.1707
A_0     C     0.2929     0.6969     0.0261
A_0     C     0.9492     0.0569     0.0874
A_0     C     0.0941     0.0648     0.4457
A_0     C     0.3739     0.3099     0.4768
A_3     C     0.8583     0.6446     0.9308
A_2     C     0.9855     0.8993     0.3761
A_0     C     0.7716     0.6227     0.7398
A_2     C     0.4092     0.1686     0.2481
A_0     C     0.8719     0.7885     0.3586
A_3     C     0.6671     0.7797     0.5977
A_3     C     0.9233     0.6113     0.5845
A_3     C     0.2903     0.7055     0.7
A_2     C     0.4642     0.0204     0.5961
A_3     C     0.951     0.2938     0.4114
A_1     C     0.265     0.9004     0.3322
A_3     C     0.2197     0.1158     0.8921
A_0     C     0.3685     0.9709     0.591
A_0     C     0.8621     0.5906     0.0926
A_0     C     0.3768     0.9286     0.5188
A_3     C     0.6221     0.9574     0.3206
A_0     C     0.4535     0.0829     0.6041
A_1     C     0.8757     0.2148     0.6997
A_0     C     0.282     0.0335     0.9824
A_0     C     0.4834     0.0289     0.4039
A_0     C     0.9355     0.2384     0.722
A_3     C     0.2501     0.7638     0.4995
A_3     C     0.7579     0.1654     0.1889
A_1     C     0.441     0.4066     0.9429
A_1     C     0.5737     0.8286     0.7909
A_3     C     0.7802     0.2979     0.7035
A_2     C     0.231     0.0146     0.0555
A_1     C     0.5072     0.6456     0.4473
A_1     C     0.4506     0.4099     0.9688
A_0     C     0.3718     0.6011     0.2263
A_0     C     0.3196     0.6827     0.6596
A_3     C     0.2201     0.2087     0.977
A_2     C     0.2121     0.7233     0.0101
A_0     C     0.9455     0.0704     0.5913
A_3     C     0.0195     0.1535     0.514
A_2     C     0.7741     0.8563     0.556
A_1     C     0.2157     0.1398     0.7359
A_2     C     0.426     0.682     0.3065
A_3     C     0.3022     0.7854     0.733
A_2     C     0.5208     0.3135     0.4645
A_1     C     0.5632     0.1799     0.9618
A_2     C     0.5291     0.6002     0.6559
A_1     C     0.1606     0.1327     0.4724
A_3     C     0.5732     0.3036     0.622
A_1     C     0.874     0.5856     0.8242
A_0     C     0.9566     0.3185     0.5837
A_3     C     0.011     0.7923     0.9141
A_2     C     0.6755     0.4836     0.151
A_2     C     0.426     0.9668     0.9601
A_1     C     0.8395     0.3837     0.0037
A_1     C     0.9813     0.2923     0.1544
A_3     C     0.324     0.328     0.928
A_3     C     0.785     0.6254     0.3619
A_1     C     0.6324     0.3973     0.4943
A_2     C     0.7287     0.8093     0.8573
A_2     C     0.2334     0.7086     0.4801
A_0     C     0.6231     0.5609     0.6757
A_0     C     0.9586     0.6932     0.6688
A_0     C     0.8797     0.3878     0.6507
A_2     C     0.4975     0.0498     0.6055
A_2     C     0.3811     0.761     0.8222
A_1     C     0.6145     0.5807     0.3521
A_0     C     0.1862     0.3548     0.0663
A_2     C     0.5476     0.5671     0.2394
A_0     C     0.3261     0.5238     0.734
A_1     C     0.4276     0.4935     0.4827
A_1     C     0.5936     0.5713     0.2483
A_0     C     0.2112     0.8687     0.5349
A_3     C     0.3027     0.0879     0.8451
A_1     C     0.6424     0.0415     0.9789
A_2     C     0.8431     0.7642     0.9908
A_2     C     0.8052     0.7473     0.4751
A_3     C     0.7164     0.1382     0.7713
A_2     C     0.9229     0.7993     0.0748
A_0     C     0.7179     0.5603     0.7186
A_3     C     0.4064     0.9344     0.8544
A_1     C     0.6025     0.599     0.0481
A_2     C     0.153     0.7325     0.3576
A_3     C     0.1823     0.127     0.1575
A_3     C     0.8313     0.0088     0.8053
A_1     C     0.6145     0.7005     0.9941
A_3     C     0.8628     0.827     0.7301
A_2     C     0.3018     0.9388     0.5693
A_3     C     0.0277     0.2133     0.2525
A_1     C     0.3787     0.6597     0.5525
A_0     C     0.8261     0.0227     0.6784
A_2     C     0.125     0.292     0.4483
A_0     C     0.5138     0.4821     0.4425
A_1     C     0.3905     0.0782     0.0917
A_2     C     0.4987     0.5711     0.1801
A_3     C     0.8628     0.9101     0.4972
A_2     C     0.0679     0.7728     0.4104
A_1     C     0.65     0.8666     0.5981
A_0     C     0.4055     0.3266     0.681
A_0     C     0.5699     0.3296     0.7574
A_2     C     0.426     0.4436     0.03
A_1     C     0.8959     0.6828     0.4235
A_0     C     0.7842     0.065     0.2058
A_1     C     0.7685     0.3879     0.8744
A_2     C     0.9726     0.4306     0.1091
A_0     C     0.9614     0.4197     0.9537
A_1     C     0.8543     0.9323     0.0905
A_0     C     0.8865     0.8612     0.368
A_1     C     0.4195     0.8663     0.8345
A_3     C     0.0666     0.615     0.647
A_2     C     0.3186     0.6669     0.4673
A_3     C     0.0023     0.8774     0.948
A_3     C     0.027     0.9636     0.7267
A_2     C     0.1424     0.1798     0.9495
A_0     C     0.1691     0.4792     0.0362
A_3     C     0.5988     0.6169     0.9412
A_1     C     0.4896     0.0239     0.2338
A_0     C     0.9315     0.6693     0.7606
A_2     C     0.3672     0.0822     0.9674
A_0     C     0.0463     0.8574     0.9437
A_2     C     0.6622     0.8346     0.6965
A_0     C     0.8106     0.1885     0.871
A_0     C     0.7526     0.0553     0.7959
A_0     C     0.664     0.5316     0.6561
A_1     C     0.5478     0.5611     0.4693
A_0     C     0.3044     0.0217     0.4427
A_2     C     0.381     0.2197     0.6689
A_3     C     0.0284     0.2719     0.9534
A_3     C     0.4842     0.5857     0.1859
A_2     C     0.6927     0.0145     0.0308
A_2     C     0.9868     0.8971     0.6237
A_1     C     0.4883     0.4864     0.4208
A_1     C     0.7215     0.6656     0.6158
A_1     C     0.6594     0.5821     0.7744
A_2     C     0.9068     0.0514     0.8442
A_0     C     0.5494     0.7791     0.6637
A_1     C     0.4678     0.6883     0.8023
A_3     C     0.8427     0.9734     0.5017
A_3     C     0.4629     0.9367     0.8665
A_1     C     0.8571     0.0218     0.0577
A_2     C     0.0637     0.778     0.0469
A_2     C     0.2862     0.9752     0.8
A_2     C     0.9084     0.1226     0.6116
A_2     C     0.5757     0.7334     0.3909
A_3     C     0.4917     0.7276     0.8034
A_1     C     0.3872     0.179     0.1286
A_0     C     0.4289     0.9742     0.4336
A_2     C     0.5399     0.0956     0.2747
A_1     C     0.4868     0.5114     0.6311
A_2     C     0.3093     0.9823     0.057
A_2     C     0.0071     0.1465     0.5177
A_1     C     0.9142     0.9944     0.8992
A_1     C     0.57     0.8996     0.5289
A_0     C     0.2455     0.9027     0.5219
A_2     C     0.0461     0.761     0.7909
A_2     C     0.4374     0.7749     0.0021
A_3     C     0.5105     0.6094     0.1532
A_2     C     0.2046     0.9311     0.5719
A_2     C     0.4904     0.6339     0.5088
A_1     C     0.8568     0.1648     0.9066
A_1     C     0.504     0.6031     0.1983
A_3     C     0.4359     0.1786     0.4771
A_1     C     0.3903     0.9346     0.4503
A_1     C     0.5749     0.5469     0.1593
A_3     C     0.398     0.5143     0.3097
A_1     C     0.6658     0.1548     0.8896
A_2     C     0.2847     0.3256     0.525
A_2     C     0.2235     0.5871     0.7176
A_2     C     0.3026     0.571     0.955
A_1     C     0.5687     0.6448     0.334
A_3     C     0.9791     0.7691     0.8038
A_2     C     0.4396     0.6055     0.1643
A_2     C     0.3521     0.0948     0.0245
A_3     C     0.0131     0.6482     0.1627
A_2     C     0.9821     0.4689     0.7499
A_3     C     0.8195     0.0272     0.9687
A_2     C     0.0524     0.0601     0.8284
A_2     C     0.6853     0.3679     0.2341
A_2     C     0.3092     0.1335     0.8844
A_0     C     0.4089     0.7624     0.6872
A_2     C     0.3381     0.6615     0.8202
A_3     C     0.8054     0.1758     0.4416
A_2     C     0.3532     0.0796     0.9727
A_2     C     0.9642     0.5688     0.9618
A_3     C     0.5401     0.4052     0.5615
A_1     C     0.7332     0.745     0.6487
A_1     C     0.0245     0.1765     0.0128
A_3     C     0.6052     0.531     0.2221
A_2     C     0.5553     0.1269     0.6394
A_3     C     0.0102     0.0404     0.4468
A_3     C     0.6315     0.1574     0.3669
A_3     C     0.6406     0.7204     0.393
A_2     C     0.8465     0.9163     0.5447
A_0     C     0.1964     0.6613     0.0044
A_0     C     0.7117     0.125     0.5302
A_3     C     0.9717     0.5819     0.8544
A_0     C     0.6128     0.0796     0.5174
A_2     C     0.059     0.5752     0.6675
A_0     C     0.3207     0.6196     0.9985
A_1     C     0.4278     0.226     0.0902
A_2     C     0.3286     0.503     0.4178
A_2     C     0.6194     0.2007     0.9036
A_0     C     0.0836     0.7357     0.7356
A_2     C     0.8718     0.5509     0.9525
A_0     C     0.5248     0.1911     0.3504
A_2     C     0.7558     0.0134     0.6602
A_0     C     0.8374     0.0459     0.4774
A_1     C     0.2389     0.7929     0.6105
A_3     C     0.3007     0.186     0.2675
A_0     C     0.4732     0.0335     0.2077
A_1     C     0.8935     0.0389     0.4003
A_3     C     0.0533     0.0074     0.1683
A_0     C     0.8713     0.0525     0.1066
A_0     C     0.7564     0.8273     0.2031
A_1     C     0.437     0.2792     0.5983
A_2     C     0.3216     0.9325     0.5411
A_3     C     0.6607     0.6757     0.205
A_0     C     0.0281     0.0503     0.0594
A_0     C     0.9865     0.9862     0.8366
A_1     C     0.6259     0.0495     0.268
A_0     C     0.7353     0.0651     0.4971
A_1     C     0.6761     0.8694     0.3109
A_3     C     0.3387     0.3061     0.7082
A_2     C     0.643     0.2582     0.083
A_2     C     0.3012     0.2213     0.8558
A_1     C     0.0056     0.6348     0.3072
A_2     C     0.3086     0.3011     0.6611
A_3     C     0.3129     0.599     0.8303
A_2     C     0.9216     0.87     0.6201
A_3     C     0.4062     0.3753     0.0959
A_3     C     0.4865     0.9268     0.8603
A_3     C     0.8918     0.7267     0.0163
A_1     C     0.0869     0.0674     0.3741
A_0     C     0.9333     0.2729     0.3377
A_0     C     0.4435     0.2635     0.928
A_3     C     0.8805     0.2177     0.1008
A_2     C     0.398     0.4545     0.7744
A_2     C     0.3972     0.0311     0.9522
A_1     C     0.2175     0.2312     0.3557
A_2     C     0.0097     0.6546     0.193
A_3     C     0.6817     0.6249     0.5823
A_1     C     0.1005     0.4805     0.9936
A_0     C     0.7253     0.0149     0.1354
A_0     C     0.6218     0.3991     0.3154
A_3     C     0.7819     0.6106     0.8322
A_0     C     0.9419     0.318     0.9504
A_2     C     0.4072     0.8018     0.8627
A_1     C     0.2266     0.2775     0.5597
A_2     C     0.1652     0.9406     0.7454
A_2     C     0.6772     0.2417     0.0428
A_2     C     0.7822     0.4995     0.2498
A_3     C     0.6569     0.5703     0.6037
A_0     C     0.6074     0.4237     0.7232
A_1     C     0.5104     0.8951     0.7857
A_0     C     0.7259     0.1289     0.9551
A_1     C     0.7239     0.4533     0.2023
A_1     C     0.6606     0.3392     0.3819
A_2     C     0.4913     0.3684     0.0349
A_0     C     0.368     0.3638     0.4885
A_0     C     0.6503     0.2817     0.7949
A_2     C     0.242     0.2462     0.6469
A_0     C     0.2646     0.4091     0.7299
A_0     C     0.7907     0.4034     0.0675
A_0     C     0.4401     0.0852     0.8305
A_0     C     0.1827     0.9024     0.1623
A_1     C     0.1546     0.7914     0.9002
A_3     C     0.564     0.1201     0.5044
A_2     C     0.0339     0.1046     0.9063
A_0     C     0.7177     0.4227     0.3992
A_2     C     0.2538     0.2007     0.3079
A_2     C     0.8407     0.5276     0.4959
A_2     C     0.1414     0.8722     0.9421
A_2     C     0.7434     0.6893     0.5562
A_1     C     0.2376     0.6246     0.6017
A_3     C     0.9209     0.7977     0.312
A_1     C     0.255     0.7561     0.8297
A_3     C     0.4329     0.2365     0.8427
A_3     C     0.8504     0.8688     0.6204
A_3     C     0.2335     0.284     0.6408
A_1     C     0.4746     0.6792     0.4857
A_0     C     0.3155     0.4415     0.3737
A_2     C     0.0508     0.3314     0.637
A_2     C     0.2785     0.044     0.8997
A_0     C     0.6934     0.3675     0.6524
A_3     C     0.3802     0.31     0.3511
A_0     C     0.9651     0.7151     0.9602
A_0     C     0.0364     0.7597     0.0369
A_2     C     0.7993     0.3759     0.5414
A_2     C     0.7868     0.2228     0.2002
A_3     C     0.5158     0.4579     0.4248
A_2     C     0.0244     0.9318     0.2613
A_1     C     0.6419     0.5173     0.4434
A_1     C     0.7363     0.5146     0.8852
A_1     C     0.5356     0.3197     0.4865
A_0     C     0.208     0.2522     0.4757
A_3     C     0.8204     0.8688     0.9769
A_3     C     0.3381     0.23     0.6986
A_1     C     0.6647     0.6286     0.0232
A_0     C     0.0433     0.5232     0.7015
A_3     C     0.7802     0.1548     0.7429
A_0     C     0.3755     0.8812     0.8025
A_3     C     0.9329     0.3488     0.6438
A_1     C     0.3946     0.6888     0.0003
A_0     C     0.7777     0.923     0.9413
A_1     C     0.5715     0.5212     0.8016
A_3     C     0.8269     0.7621     0.5604
A_0     C     0.0027     0.2688     0.2218
A_1     C     0.6458     0.5317     0.0772
A_1     C     0.5789     0.9563     0.7498
A_0     C     0.9228     0.8655     0.1654
A_1     C     0.4913     0.7359     0.7155
A_0     C     0.5734     0.7453     0.5204
A_3     C     0.3878     0.5035     0.5523
A_1     C     0.465     0.2674     0.3076
A_2     C     0.7031     0.8443     0.8636
A_3     C     0.1917     0.7976     0.1072
A_0     C     0.9891     0.4342     0.7125
A_3     C     0.3896     0.4595     0.5342
A_0     C     0.9507     0.3818     0.5227
A_0     C     0.8691     0.4994     0.6411
A_0     C     0.1778     0.8618     0.3178
A_3     C     0.2833     0.2251     0.0175
A_3     C     0.8686     0.1006     0.6243
A_2     C     0.4852     0.7619     0.8214
A_2     C     0.6325     0.8014     0.6395
A_3     C     0.361     0.9099     0.8306
A_1     C     0.2676     0.9676     0.1803
A_1     C     0.6413     0.6133     0.3653
A_2     C     0.373     0.4684     0.2347
A_3     C     0.0253     0.7524     0.032
A_3     C     0.4933     0.8786     0.1064
A_3     C     0.7948     0.9356     0.2794
A_3     C     0.4249     0.1139     0.8745
A_1     C     0.1835     0.9236     0.3841
A_0     C     0.9818     0.1777     0.4904
A_3     C     0.022     0.1867     0.0381
A_2     C     0.6967     0.5326     0.7392
A_0     C     0.5879     0.6137     0.3151
A_0     C     0.7528     0.0618     0.7738
A_1     C     0.2905     0.4989     0.1911
A_2     C     0.8015     0.8211     0.4421
A_3     C     0.4586     0.9388     0.3633
A_3     C     0.4474     0.2318     0.5839
A_1     C     0.8885     0.3771     0.2299
A_3     C     0.5253     0.9717     0.6783
A_3     C     0.5268     0.8126     0.8499
A_2     C     0.3728     0.8441     0.7363
A_1     C     0.295     0.7967     0.3376
A_0     C     0.8148     0.8792     0.8184
A_3     C     0.1388     0.2     0.9797
A_0     C     0.3888     0.132     0.9004
A_3     C     0.666     0.3235     0.4292
A_2     C     0.6864     0.7448     0.9963
A_0     C     0.5119     0.4375     0.3878
A_2     C     0.124     0.3411     0.6706
A_1     C     0.4878     0.2269     0.5398
A_2     C     0.0905     0.5604     0.5935
A_1     C     0.5695     0.9049     0.3331
A_3     C     0.9445     0.6768     0.6716
A_2     C     0.9384     0.3318     0.1913
A_1     C     0.4392     0.5975     0.3519
A_1     C     0.017     0.4135     0.1422
A_3     C     0.9913     0.8379     0.266
A_1     C     0.5086     0.0195     0.1769
A_2     C     0.3128     0.2901     0.7896
A_0     C     0.8514     0.7049     0.2577
A_3     C     0.1835     0.1524     0.0329
A_1     C     0.891     0.3252     0.7564
A_1     C     0.0096     0.959     0.5968
A_1     C     0.365     0.6235     0.9351
A_1     C     0.9019     0.3665     0.0925
A_1     C     0.3799     0.6827     0.9961
A_3     C     0.5008     0.8634     0.9053
A_0     C     0.2708     0.5874     0.9145
A_0     C     0.9732     0.7122     0.3715
A_2     C     0.5517     0.187     0.9065
A_2     C     0.0735     0.5271     0.3534
A_0     C     0.7259     0.6794     0.6833
A_3     C     0.5505     0.74     0.2943
A_1     C     0.9399     0.4964     0.2395
A_0     C     0.1186     0.9241     0.1114
A_3     C     0.1344     0.3215     0.4959
A_1     C     0.6844     0.698     0.4064
A_3     C     0.2992     0.3391     0.7811
A_1     C     0.3792     0.6567     0.0587
A_3     C     0.9349     0.3188     0.828
A_0     C     0.7604     0.5756     0.6216
A_0     C     0.3449     0.2578     0.959
A_2     C     0.3448     0.0302     0.5508
A_2     C     0.2371     0.8836     0.3725
A_3     C     0.8774     0.0537     0.2085
A_2     C     0.1461     0.5141     0.509
A_1     C     0.0714     0.2766     0.5967
A_2     C     0.9765     0.9979     0.8137
A_3     C     0.7929     0.3717     0.3742
A_3     C     0.9891     0.0585     0.1429
A_1     C     0.1456     0.6064     0.4221
A_1     C     0.4855     0.5589     0.3374
A_3     C     0.46     0.3064     0.6522
A_1     C     0.1907     0.3279     0.1874
A_0     C     0.459     0.1226     0.585
A_2     C     0.9728     0.2274     0.0062
A_0     C     0.087     0.5639     0.2757
A_2     C     0.6925     0.0287     0.9665
A_2     C     0.2545     0.6692     0.7812
A_0     C     0.8852     0.2699     0.9422
A_3     C     0.8544     0.5852     0.4004
A_2     C     0.2894     0.7672     0.9167
A_0     C     0.4265     0.6402     0.4387
A_2     C     0.2608     0.6732     0.5227
A_2     C     0.6138     0.3748     0.0579
A_3     C     0.0391     0.7092     0.5127
A_1     C     0.9453     0.6427     0.5006
A_0     C     0.8972     0.207     0.1247
A_0     C     0.3001     0.6987     0.229
A_3     C     0.6723     0.3999     0.4593
A_0     C     0.0946     0.6383     0.0921
A_2     C     0.1856     0.6408     0.4996
A_2     C     0.9281     0.0778     0.0996
A_2     C     0.4764     0.3944     0.3997
A_1     C     0.7071     0.0766     0.0819
A_3     C     0.8577     0.0474     0.6504
A_0     C     0.3786     0.0865     0.2393
A_0     C     0.546     0.8051     0.0855
A_2     C     0.2952     0.3383     0.155
A_3     C     0.1121     0.9078     0.9517
A_0     C     0.3967     0.5186     0.9661
A_3     C     0.9952     0.7176     0.4914
A_3     C     0.419     0.2885     0.545
A_0     C     0.6432     0.9243     0.9595
A_1     C     0.357     0.872     0.1701
A_1     C     0.5192     0.2694     0.4595
A_0     C     0.8196     0.051     0.7536
A_3     C     0.5406     0.2062     0.8853
A_0     C     0.895     0.2781     0.4075
A_0     C     0.8857     0.924     0.7859
A_2     C     0.8342     0.0433     0.3318
A_0     C     0.2384     0.564     0.0413
A_2     C     0.2807     0.3334     0.4198
A_3     C     0.7615     0.7665     0.4195
A_3     C     0.173     0.7181     0.2877
A_2     C     0.7734     0.4515     0.1656
A_0     C     0.7937     0.8734     0.0995
A_1     C     0.2483     0.7795     0.7598
A_0     C     0.6759     0.1807     0.5707
A_2     C     0.9519     0.4736     0.8812
A_0     C     0.3717     0.9861     0.9472
A_0     C     0.3568     0.969     0.222
A_2     C     0.4723     0.5021     0.1818
A_3     C     0.1434     0.5987     0.1324
A_3     C     0.2727     0.7452     0.2013
A_3     C     0.1063     0.3789     0.967
A_2     C     0.6898     0.1223     0.9332
A_1     C     0.7581     0.3055     0.3894
A_3     C     0.4058     0.3356     0.2793
A_0     C     0.0251     0.8103     0.1453
A_0     C     0.3764     0.7445     0.2093
A_0     C     0.9911     0.943     0.9581
A_3     C     0.5838     0.9369     0.8129
A_1     C     0.2833     0.5489     0.3454
A_2     C     0.3919     0.631     0.8868
A_3     C     0.2992     0.3142     0.4627
A_3     C     0.1944     0.9395     0.2652
A_2     C     0.218     0.0445     0.5946
A_0     C     0.859     0.6734     0.5238
A_2     C     0.987     0.3331     0.8713
A_0     C     0.2002     0.4313     0.4928
A_3     C     0.7517     0.374     0.1424
A_1     C     0.5593     0.0781     0.2759
A_1     C     0.1487     0.1424     0.1398
A_3     C     0.7066     0.3929     0.2385
A_2     C     0.2461     0.2113     0.0732
A_2     C     0.0992     0.3626     0.3074
A_2     C     0.7126     0.3588     0.8872
A_3     C     0.9497     0.9068     0.2562
A_3     C     0.7448     0.9583     0.107
A_0     C     0.4109     0.6264     0.5633
A_2     C     0.4949     0.7171     0.9532
A_2     C     0.9249     0.8676     0.9422
A_2     C     0.4077     0.9549     0.6121
A_3     C     0.2451     0.8634     0.382
A_3     C     0.4079     0.6429     0.9712
A_1     C     0.3472     0.9403     0.2628
A_0     C     0.553     0.795     0.6959
A_2     C     0.4048     0.9458     0.1875
A_0     C     0.493     0.4189     0.836
A_2     C     0.4887     0.7754     0.6383
A_2     C     0.2621     0.5881     0.5043
A_1     C     0.7847     0.5651     0.2623
A_0     C     0.678     0.3248     0.009
A_3     C     0.4035     0.1514     0.7757
A_0     C     0.821     0.4857     0.6159
A_0     C     0.7795     0.2403     0.936
A_2     C     0.9279     0.0676     0.0942
A_0     C     0.9139     0.1174     0.8868
A_1     C     0.7711     0.1321     0.9514
A_1     C     0.7622     0.7048     0.6171
A_0     C     0.2693     0.3305     0.7042
A_3     C     0.0127     0.3673     0.6849
A_2     C     0.255     0.5931     0.2534
A_3     C     0.8492     0.1327     0.1593
A_1     C     0.1237     0.2913     0.7884
A_1     C     0.5211     0.4635     0.429
A_3     C     0.4982     0.8608     0.4782
A_3     C     0.2798     0.3539     0.0398
A_0     C     0.52     0.6189     0.1448
A_0     C     0.5472     0.871     0.6299
A_2     C     0.7761     0.2084     0.3957
A_0     C     0.4038     0.4532     0.4964
A_0     C     0.0192     0.2346     0.4325
A_3     C     0.5199     0.6866     0.1947
A_3     C     0.0251     0.5937     0.1534
A_1     C     0.2012     0.9783     0.3909
A_2     C     0.3119     0.8671     0.3949
A_1     C     0.0883     0.394     0.6276
A_1     C     0.8121     0.4623     0.9511
A_0     C     0.9783     0.059     0.8662
A_3     C     0.0548     0.4169     0.3305
A_3     C     0.2256     0.2563     0.8103
A_1     C     0.7513     0.0191     0.9774
A_3     C     0.0281     0.4963     0.1037
A_0     C     0.1669     0.4923     0.0293
A_1     C     0.4764     0.0722     0.605
A_1     C     0.9551     0.3297     0.5442
A_3     C     0.2495     0.8318     0.1891
A_2     C     0.22     0.3471     0.7501
A_2     C     0.469     0.6951     0.0076
A_0     C     0.7089     0.6978     0.7459
A_1     C     0.6797     0.1449     0.6604
A_0     C     0.8073     0.9862     0.1277
A_3     C     0.4969     0.9664     0.4801
A_0     C     0.8535     0.172     0.8911
A_2     C     0.5236     0.6708     0.1221
A_1     C     0.1598     0.0827     0.9255
A_1     C     0.9366     0.4616     0.6224
A_2     C     0.2497     0.729     0.407
A_3     C     0.0544     0.5263     0.7071
A_2     C     0.2433     0.7025     0.2834
A_1     C     0.1445     0.0935     0.5801
A_2     C     0.6935     0.2485     0.7164
A_0     C     0.3596     0.9067     0.6359
A_1     C     0.6565     0.7318     0.5298
A_2     C     0.628     0.3056     0.2645
A_0     C     0.4214     0.049     0.2263
A_3     C     0.3279     0.8245     0.8827
A_2     C     0.7296     0.723     0.383
A_0     C     0.8188     0.2016     0.8739
A_1     C     0.5743     0.1348     0.5897
A_0     C     0.5793     0.7724     0.7872
A_2     C     0.0307     0.7554     0.5789
A_3     C     0.279     0.4607     0.8026
A_1     C     0.2821     0.539     0.13
A_2     C     0.7827     0.3907     0.1089
A_0     C     0.637     0.2804     0.0243
A_0     C     0.344     0.3081     0.2045
A_1     C     0.7158     0.2448     0.5992
A_1     C     0.6945     0.9881     0.7196
A_2     C     0.3225     0.5852     0.1836
A_1     C     0.6914     0.7084     0.3005
A_3     C     0.2806     0.0906     0.8099
A_0     C     0.2356     0.3009     0.2483
A_1     C     0.9597     0.2045     0.5099
A_1     C     0.7699     0.1323     0.5385
A_2     C     0.765     0.8645     0.2452
A_0     C     0.3553     0.3114     0.3615
A_0     C     0.9938     0.1859     0.1677
A_1     C     0.9511     0.2313     0.49
A_1     C     0.3646     0.8553     0.9875
A_0     C     0.5693     0.9797     0.3722
A_0     C     0.0515     0.4348     0.4944
A_3     C     0.1174     0.8882     0.9344
A_0     C     0.1057     0.9294     0.3195
A_2     C     0.8918     0.0045     0.06
A_1     C     0.692     0.349     0.3386
A_0     C     0.564     0.1165     0.8496
A_2     C     0.7351     0.549     0.8634
A_2     C     0.6147     0.5037     0.4298
A_1     C     0.9301     0.4844     0.8531
A_2     C     0.7131     0.8717     0.0496
A_2     C     0.2258     0.4058     0.7892
A_0     C     0.2479     0.903     0.2747
A_1     C     0.926     0.8535     0.365
A_3     C     0.3383     0.1155     0.8539
A_1     C     0.2259     0.5125     0.2068
A_3     C     0.208     0.2062     0.5948
A_1     C     0.8371     0.7905     0.5292
A_0     C     0.957     0.3643     0.6174
A_3     C     0.7018     0.6852     0.0109
A_2     C     0.2591     0.3782     0.8754
A_3     C     0.8612     0.5589     0.1688
A_0     C     0.0909     0.0223     0.5928
A_1     C     0.2354     0.5606     0.5742
A_3     C     0.0721     0.495     0.9295
A_2     C     0.3955     0.7209     0.9322
A_1     C     0.3778     0.8808     0.0359
A_1     C     0.6544     0.5973     0.6563
A_0     C     0.3648     0.5879     0.4933
A_2     C     0.5     0.8811     0.3348
A_3     C     0.1745     0.5385     0.2429
A_2     C     0.7165     0.9114     0.829
A_1     C     0.1864     0.5971     0.8679
A_0     C     0.8004     0.7234     0.2658
A_3     C     0.5631     0.2671     0.349
A_3     C     0.6854     0.0834     0.5495
A_3     C     0.1331     0.5447     0.3125
A_0     C     0.5192     0.9589     0.9113
A_1     C     0.9299     0.5088     0.5062
A_2     C     0.0887     0.1003     0.4197
A_3     C     0.505     0.5216     0.3452
A_3     C     0.7616     0.4908     0.8673
A_0     C     0.1228     0.0225     0.7347
A_2     C     0.7999     0.132     0.6715
A_1     C     0.6643     0.6451     0.8791
A_1     C     0.1002     0.275     0.0886
A_1     C     0.5079     0.6758     0.5304
A_1     C     0.7775     0.5616     0.4173
A_2     C     0.3425     0.6872     0.2937
A_1     C     0.3579     0.1881     0.6033
A_2     C     0.9141     0.0513     0.0368
A_2     C     0.0359     0.2963     0.6601
A_1     C     0.0664     0.9328     0.8657
A_2     C     0.7857     0.7479     0.2756
A_3     C     0.24     0.1793     0.606
A_1     C     0.7147     0.8745     0.9774
A_1     C     0.371     0.2683     0.8272
A_1     C     0.5517     0.1634     0.3454
A_2     C     0.9753     0.8971     0.0494
A_1     C     0.7193     0.3886     0.9244
A_3     C     0.4828     0.4308     0.9384
A_0     C     0.7318     0.1096     0.0095
A_2     C     0.8184     0.5044     0.7074
A_2     C     0.3467     0.0334     0.4571
A_0     C     0.4567     0.7408     0.9015
A_0     C     0.6089     0.3449     0.1269
A_2     C     0.9824     0.4301     0.2229
A_2     C     0.9449     0.563     0.432
A_3     C     0.8432     0.351     0.838
A_0     C     0.6103     0.7109     0.4137
A_0     C     0.9302     0.7477     0.6729
A_2     C     0.2222     0.5462     0.0671
A_1     C     0.9954     0.4889     0.8492
A_2     C     0.6288     0.3081     0.1526
A_1     C     0.208     0.4469     0.6026
A_1     C     0.3116     0.4819     0.7881
A_3     C     0.8834     0.8143     0.506
A_2     C     0.5116     0.7064     0.9103
A_3     C     0.5581     0.2922     0.5421
A_2     C     0.4888     0.0596     0.1207
A_3     C     0.1655     0.7406     0.2245
A_2     C     0.6682     0.545     0.4085
A_3     C     0.3166     0.3208     0.5235
A_3     C     0.7979     0.8422     0.0588
A_3     C     0.692     0.9712     0.3202
A_1     C     0.5709     0.74     0.0704
A_2     C     0.2087     0.0318     0.3989
A_3     C     0.2204     0.0317     0.2955
A_1     C     0.8484     0.4566     0.31
A_2     C     0.4621     0.1106     0.5534
A_2     C     0.4685     0.4584     0.8277
A_0     C     0.209     0.2035     0.5271
A_2     C     0.9182     0.8064     0.5679
A_0     C     0.6497     0.9615     0.1268
A_2     C     0.8826     0.8576     0.0871
A_3     C     0.4126     0.4667     0.6427
A_0     C     0.4744     0.6397     0.5401
A_1     C     0.6597     0.4923     0.3035
A_1     C     0.62     0.4693     0.6357
A_2     C     0.0412     0.1416     0.27
A_2     C     0.3473     0.5037     0.9615
A_1     C     0.174     0.8996     0.2874
A_1     C     0.8608     0.8789     0.5968
A_2     C     0.112     0.7148     0.5833
A_1     C     0.7885     0.3201     0.6119
A_2     C     0.5605     0.141     0.3612
A_3     C     0.4628     0.135     0.3616
A_2     C     0.0564     0.8834     0.664
A_0     C     0.3131     0.2403     0.7649
A_1     C     0.6587     0.0944     0.2471
A_3     C     0.9899     0.0258     0.8236
A_0     C     0.2358     0.4239     0.011
A_2     C     0.6389     0.6413     0.1139
A_3     C     0.3014     0.9886     0.9761
A_3     C     0.7645     0.1557     0.5915
A_0     C     0.289     0.6923     0.8604
A_2     C     0.9007     0.8026     0.3952
A_2     C     0.6214     0.6875     0.5984
A_0     C     0.8002     0.7075     0.1427
A_3     C     0.0121     0.8955     0.4885
A_1     C     0.4376     0.0794     0.8873
A_0     C     0.438     0.1965     0.7712
A_0     C     0.4157     0.5463     0.0347
A_3     C     0.8969     0.2873     0.6326
A_2     C     0.525     0.0361     0.1843
A_0     C     0.6445     0.3055     0.4922
A_3     C     0.8106     0.627     0.2969
A_3     C     0.0645     0.7107     0.8719
A_2     C     0.6302     0.3562     0.354
A_1     C     0.3645     0.6803     0.4912
A_1     C     0.7756     0.5581     0.4215
A_1     C     0.1731     0.5466     0.6555
A_2     C     0.371     0.1826     0.0043
A_1     C     0.6539     0.7359     0.1196
A_0     C     0.6251     0.6728     0.2892
A_3     C     0.0812     0.0158     0.2643
A_2     C     0.8164     0.7021     0.846
A_2     C     0.1516     0.9824     0.1604
A_2     C     0.5517     0.7895     0.0237
A_3     C     0.1868     0.8474     0.1678
A_0     C     0.0183     0.2656     0.1888
A_2     C     0.5979     0.1542     0.6002
A_2     C     0.7016     0.8242     0.2311
A_1     C     0.4558     0.4141     0.0854
A_3     C     0.1881     0.3316     0.4822
A_3     C     0.546     0.9326     0.4348
A_1     C     0.5711     0.006     0.4958
A_1     C     0.0702     0.5393     0.3669
A_0     C     0.7435     0.5304     0.4551
A_2     C     0.2852     0.1492     0.5279
A_2     C     0.5843     0.025     0.8764
A_2     C     0.3762     0.6257     0.6572
A_2     C     0.5541     0.1889     0.4568
A_2     C     0.0415     0.7889     0.3706
A_2     C     0.5142     0.495     0.1675
A_3     C     0.4482     0.0807     0.5512
A_1     C     0.1743     0.8825     0.2189
A_0     C     0.785     0.2338     0.5303
A_3     C     0.2233     0.7566     0.5386
A_3     C     0.6231     0.1973     0.5651
A_3     C     0.7545     0.1769     0.0338
A_1     C     0.6099     0.5454     0.0883
A_0     C     0.5939     0.1542     0.6343
A_2     C     0.6741     0.9517     0.1502
A_1     C     0.5586     0.8334     0.9652
A_1     C     0.414     0.2385     0.4121
A_2     C     0.283     0.8878     0.2389
A_3     C     0.3907     0.6132     0.9092
A_2     C     0.7898     0.9378     0.6937
A_0     C     0.4666     0.3814     0.1757
A_2     C     0.7192     0.3328     0.7533
A_1     C     0.4285     0.9278     0.8278
A_1     C     0.5562     0.3779     0.9238
A_2     C     0.7671     0.0761     0.7297
A_1     C     0.7968     0.6189     0.8015
A_3     C     0.7105     0.4982     0.4073
A_0     C     0.2766     0.517     0.1849
A_3     C     0.5164     0.2202     0.1405
A_1     C     0.7829     0.9482     0.9557
A_0     C     0.8816     0.6909     0.8936
A_2     C     0.1358     0.5187     0.1376
A_3     C     0.3612     0.4646     0.4832
A_0     C     0.6731     0.4736     0.298
A_1     C     0.0114     0.7468     0.0559
A_0     C     0.8747     0.4584     0.0002
A_3     C     0.3185     0.7163     0.0898
A_3     C     0.0965     0.9358     0.7293
A_1     C     0.8131     0.3708     0.7366
A_1     C     0.6704     0.5761     0.5938
A_2     C     0.8981     0.9356     0.5779
A_3     C     0.343     0.3943     0.9691
A_1     C     0.3764     0.928     0.199
A_2     C     0.5427     0.0186     0.6415
A_3     C     0.5454     0.4224     0.6344
A_0     C     0.5548     0.3754     0.0463
A_2     C     0.8481     0.7162     0.946
A_0     C     0.7136     0.0882     0.4166
A_3     C     0.3204     0.6642     0.9513
A_0     C     0.6028     0.119     0.8662
A_0     C     0.8838     0.2456     0.8832
A_0     C     0.874     0.1051     0.0586
A_1     C     0.1177     0.4177     0.5179
A_0     C     0.3418     0.9406     0.5482
A_2     C     0.9735     0.4082     0.9682
A_2     C     0.781     0.0403     0.3038
A_2     C     0.0265     0.5546     0.5859
A_3     C     0.0236     0.1761     0.6326
A_1     C     0.2599     0.6356     0.8486
A_0     C     0.6586     0.1071     0.7008
A_2     C     0.179     0.3537     0.8696
A_3     C     0.1326     0.8045     0.978
A_0     C     0.9668     0.8578     0.3309
A_3     C     0.9695     0.756     0.4239
A_0     C     0.4354     0.6485     0.9055
A_2     C     0.6988     0.6124     0.6088
A_2     C     0.999     0.4095     0.0618
A_1     C     0.45     0.2002     0.7536
A_0     C     0.6806     0.8813     0.8061
A_1     C     0.2622     0.2069     0.4237
A_3     C     0.6549     0.0165     0.2989
A_0     C     0.9268     0.3705     0.8549
A_2     C     0.6722     0.8832     0.4928
A_2     C     0.5148     0.0034     0.3046
A_3     C     0.8388     0.3495     0.4986
A_3     C     0.1168     0.0553     0.9831
A_2     C     0.7453     0.3481     0.7149
A_2     C     0.2169     0.2113     0.7068
A_3     C     0.1934     0.8116     0.7992
A_1     C     0.1781     0.1549     0.6094
A_3     C     0.8806     0.9588     0.604
A_3     C     0.9949     0.1893     0.9966
A_2     C     0.3465     0.1472     0.7874
A_3     C     0.5372     0.1316     0.1926
A_3     C     0.7497     0.4282     0.8524
A_0     C     0.9578     0.4954     0.2352
A_2     C     0.4749     0.0314     0.8441
A_2     C     0.1493     0.4326     0.918
A_2     C     0.3856     0.7497     0.507
A_3     C     0.4531     0.8139     0.6119
A_1     C     0.337     0.8774     0.8422
A_0     C     0.3096     0.0508     0.4488
A_0     C     0.2197     0.123     0.9285
A_1     C     0.8462     0.519     0.9433
A_3     C     0.0811     0.9687     0.9832
A_3     C     0.3057     0.8163     0.5417
A_1     C     0.7961     0.5344     0.0471
A_0     C     0.6242     0.58     0.6261
A_2     C     0.3862     0.1788     0.5499
A_0     C     0.1793     0.0221     0.8841
A_1     C     0.8036     0.1794     0.5802
A_0     C     0.9912     0.4972     0.1845
A_2     C     0.9316     0.4159     0.2501
A_2     C     0.1805     0.5547     0.3861
A_2     C     0.9011     0.8363     0.9357
A_2     C     0.5294     0.0807     0.8184
A_2     C     0.3814     0.6632     0.9219
A_0     C     0.4666     0.7379     0.0876
A_1     C     0.8473     0.6485     0.8346
A_2     C     0.6944     0.6823     0.6018
A_1     C     0.3443     0.7738     0.1211
A_0     C     0.6446     0.7062     0.0796
A_2     C     0.6042     0.8176     0.6273
A_1     C     0.1726     0.8074     0.0392
A_1     C     0.2578     0.9264     0.5671
A_1     C     0.9751     0.655     0.3825
A_1     C     0.6909     0.9938     0.5484
A_2     C     0.045     0.7451     0.149
A_1     C     0.1622     0.5976     0.347
A_0     C     0.2204     0.0405     0.1474
A_2     C     0.4102     0.5619     0.4064
A_3     C     0.5569     0.7261     0.3533
A_2     C     0.6846     0.4507     0.0649
A_1     C     0.1394     0.8849     0.0187
A_0     C     0.0878     0.7137     0.6103
A_0     C     0.6778     0.5405     0.5646
A_0     C     0.1032     0.7788     0.6501
A_3     C     0.8057     0.3877     0.6198
A_3     C     0.1403     0.8441     0.4609
A_0     C     0.8368     0.4318     0.1878
A_2     C     0.4284     0.4511     0.7675
A_3     C     0.4093     0.5722     0.2015
A_3     C     0.7275     0.3889     0.8522
A_1     C     0.2752     0.3939     0.2028
A_1     C     0.8982     0.3898     0.6899
A_3     C     0.3488     0.906     0.2192
A_0     C     0.0985     0.0806     0.1759
A_1     C     0.6014     0.9867     0.8292
A_0     C     0.1127     0.7068     0.4832
A_0     C     0.4641     0.2996     0.1232
A_1     C     0.5828     0.2024     0.5778
A_3     C     0.0774     0.1516     0.3873
A_1     C     0.3199     0.0152     0.4857
A_2     C     0.8876     0.9391     0.3079
A_2     C     0.6994     0.4067     0.2192
A_0     C     0.7006     0.6794     0.1574
A_0     C     0.2917     0.5691     0.0601
A_1     C     0.1091     0.3165     0.7157
A_2     C     0.6259     0.4604     0.6894
A_1     C     0.4819     0.163     0.6854
A_1     C     0.5563     0.0199     0.753
A_1     C     0.0606     0.7481     0.3259
A_3     C     0.7578     0.9447     0.7635
A_1     C     0.0686     0.3204     0.0961
A_2     C     0.727     0.3906     0.5534
A_2     C     0.3448     0.451     0.4122
A_3     C     0.9522     0.7275     0.0773
A_2     C     0.8409     0.1382     0.4518
A_0     C     0.7679     0.5632     0.5954
A_0     C     0.3445     0.5885     0.9964
A_1     C     0.6061     0.1045     0.5722
A_0     C     0.0945     0.7977     0.7953
A_0     C     0.399     0.1907     0.0634
A_1     C     0.9882     0.8374     0.0484
A_2     C     0.4449     0.6679     0.1048
A_0     C     0.5965     0.6164     0.6902
A_0     C     0.2682     0.7701     0.8958
A_2     C     0.6048     0.468     0.7994
A_1     C     0.9341     0.0668     0.8606
A_2     C     0.4618     0.1759     0.1923
A_1     C     0.4726     0.5197     0.4744
A_2     C     0.3306     0.204     0.1443
A_0     C     0.7192     0.116     0.0969
A_0     C     0.9316     0.6043     0.3906
A_3     C     0.4213     0.8813     0.8399
A_3     C     0.758     0.3751     0.1669
A_2     C     0.502     0.8766     0.1051
A_2     C     0.4527     0.9904     0.9213
A_1     C     0.2457     0.8449     0.1547
A_2     C     0.177     0.694     0.2064
A_1     C     0.6824     0.9727     0.0993
A_0     C     0.1621     0.9454     0.0657
A_0     C     0.7257     0.5983     0.6464
A_3     C     0.9278     0.3915     0.2141
A_3     C     0.4764     0.047     0.0083
A_3     C     0.1934     0.5919     0.0024
A_0     C     0.5891     0.8172     0.3276
A_2     C     0.2329     0.2967     0.2921
A_3     C     0.8447     0.6451     0.8606
A_1     C     0.6418     0.6801     0.8872
A_3     C     0.0386     0.7243     0.9069
A_3     C     0.2184     0.0671     0.1488
A_1     C     0.5059     0.3348     0.9116
A_2     C     0.2959     0.3248     0.0003
A_1     C     0.9581     0.0925     0.2124
A_1     C     0.6464     0.7539     0.003
A_3     C     0.8358     0.1447     0.8437
A_1     C     0.6991     0.7722     0.2884
A_0     C     0.007     0.5289     0.5763
A_1     C     0.3079     0.2669     0.5874
A_2     C     0.7618     0.4095     0.1761
A_1     C     0.4514     0.8778     0.1019
A_3     C     0.0043     0.529     0.0404
A_1     C     0.6746     0.933     0.1515
A_0     C     0.2867     0.5877     0.579
A_1     C     0.7312     0.3336     0.116
A_0     C     0.0161     0.3678     0.789
A_1     C     0.3306     0.1195     0.416
A_0     C     0.4647     0.9831     0.6228
A_2     C     0.5319     0.1971     0.6818
A_2     C     0.0964     0.5684     0.3426
A_2     C     0.6938     0.6454     0.8342
A_3     C     0.6788     0.6041     0.4309
A_2     C     0.5864     0.3216     0.924
A_3     C     0.8842     0.784     0.7494
A_2     C     0.7453     0.5626     0.5168
A_1     C     0.6885     0.7501     0.8548
A_0     C     0.0747     0.0129     0.7076
A_0     C     0.7768     0.2923     0.6648
A_2     C     0.3673     0.9754     0.1204
A_2     C     0.1896     0.1067     0.8464
A_1     C     0.9905     0.691     0.848
A_2     C     0.6369     0.1267     0.6502
A_1     C     0.4552     0.9789     0.5084
A_3     C     0.4905     0.7261     0.9238
A_0     C     0.6076     0.8577     0.7023
A_3     C     0.888     0.2912     0.7248
A_3     C     0.0195     0.6763     0.7515
A_0     C     0.7505     0.5005     0.341
A_1     C     0.79     0.8921     0.4103
A_1     C     0.4941     0.3148     0.7733
A_1     C     0.3863     0.941     0.5482
A_0     C     0.8877     0.4829     0.9576
A_2     C     0.7583     0.3538     0.9663
A_1     C     0.5219     0.8701     0.3069
A_3     C     0.5413     0.5471     0.5702
A_3     C     0.4216     0.6097     0.1757
A_3     C     0.1443     0.7307     0.5278
A_0     C     0.5902     0.0536     0.5607
A_0     C     0.6909     0.8538     0.914
A_3     C     0.6391     0.8731     0.9758
A_2     C     0.7112     0.3235     0.6761
A_3     C     0.0194     0.5732     0.8196
A_0     C     0.1618     0.1231     0.2609
A_3     C     0.2046     0.1419     0.7167
A_3     C     0.0482     0.5618     0.4155
A_0     C     0.6985     0.8459     0.9073
A_3     C     0.3318     0.7509     0.999
A_2     C     0.3659     0.9672     0.595
A_0     C     0.5814     0.336     0.3274
A_0     C     0.557     0.7854     0.6567
A_2     C     0.6902     0.2811     0.1191
A_2     C     0.4609     0.9222     0.5303
A_3     C     0.0759     0.905     0.5649
A_1     C     0.7121     0.4396     0.242
A_0     C     0.2653     0.9673     0.2293
A_0     C     0.6887     0.3091     0.7934
A_2     C     0.129     0.6395     0.2071
A_1     C     0.5981     0.5468     0.3944
A_0     C     0.2056     0.6854     0.2623
A_2     C     0.2073     0.5787     0.4946
A_0     C     0.3474     0.2679     0.0764
A_1     C     0.1305     0.0071     0.5093
A_0     C     0.0975     0.4002     0.9335
A_1     C     0.8085     0.4456     0.2997
A_0     C     0.7117     0.9889     0.7453
A_1     C     0.2953     0.7118     0.5003
A_1     C     0.0976     0.722     0.5315
A_3     C     0.3511     0.5989     0.1906
A_0     C     0.2622     0.9421     0.8746
A_0     C     0.1767     0.9767     0.7615
A_3     C     0.0416     0.7738     0.7429
A_1     C     0.269     0.809     0.4538
A_1     C     0.8775     0.8724     0.5616
A_3     C     0.8763     0.4493     0.7532
A_0     C     0.7643     0.1918     0.4028
A_0     C     0.2452     0.7526     0.088
A_1     C     0.2397     0.5091     0.3485
A_1     C     0.9292     0.372     0.5981
A_1     C     0.6692     0.3781     0.6136
A_1     C     0.8762     0.401     0.1972
A_2     C     0.9655     0.1538     0.1066
A_1     C     0.4167     0.5263     0.6498
A_3     C     0.2832     0.5673     0.8307
A_1     C     0.5126     0.9696     0.0187
A_2     C     0.6748     0.915     0.9916
A_3     C     0.5143     0.8767     0.7849
A_1     C     0.1993     0.2588     0.3141
A_2     C     0.4111     0.603     0.0699
A_2     C     0.2216     0.8452     0.6027
A_2     C     0.3139     0.6934     0.8732
A_1     C     0.0533     0.3939     0.107
A_1     C     0.1943     0.0462     0.8176
A_3     C     0.9185     0.173     0.9635
A_3     C     0.886     0.8901     0.8086
A_2     C     0.9141     0.0088     0.5547
A_1     C     0.3914     0.7805     0.2772
A_0     C     0.947     0.1339     0.2347
A_2     C     0.2182     0.1553     0.151
A_3     C     0.9194     0.7847     0.6133
A_3     C     0.0718     0.3422     0.7737
A_1     C     0.6774     0.5993     0.2925
A_1     C     0.5769     0.7328     0.8115
A_0     C     0.1253     0.741     0.0069
A_1     C     0.8366     0.977     0.5791
A_2     C     0.2246     0.435     0.8828
A_2     C     0.5118     0.7528     0.3655
A_3     C     0.2275     0.6646     0.0473
A_3     C     0.3145     0.1916     0.175
A_3     C     0.2167     0.9121     0.5536
A_2     C     0.3615     0.4805     0.6528
A_3     C     0.9317     0.0345     0.9656
A_2     C     0.4837     0.9234     0.7452
A_3     C     0.2194     0.7921     0.1452
A_2     C     0.8968     0.037     0.9281
A_3     C     0.8445     0.2905     0.6036
A_0     C     0.695     0.0165     0.4491
A_0     C     0.2733     0.3903     0.4899
A_2     C     0.8929     0.473     0.72
A_3     C     0.6718     0.088     0.8616
A_0     C     0.2365     0.967     0.6842
A_2     C     0.0554     0.3156     0.2717
A_3     C     0.5418     0.1198     0.8272
A_0     C     0.0015     0.8766     0.4463
A_3     C     0.3545     0.6383     0.1695
A_1     C     0.8777     0.6314     0.9819
A_2     C     0.7926     0.0095     0.4539
A_0     C     0.5952     0.8299     0.9011
A_3     C     0.522     0.7753     0.213
A_1     C     0.9713     0.6682     0.5794
A_1     C     0.7412     0.347     0.9708
A_3     C     0.9108     0.5767     0.9546
A_0     C     0.4409     0.0089     0.5077
A_1     C     0.3546     0.0737     0.7661
A_2     C     0.1674     0.3562     0.7699
A_2     C     0.6017     0.2124     0.6981
A_3     C     0.7952     0.7622     0.1542
A_2     C     0.0467     0.7417     0.643
A_3     C     0.6386     0.6229     0.144
A_0     C     0.1222     0.5062     0.1802
A_2     C     0.5091     0.8037     0.843
A_1     C     0.7342     0.3728     0.113
A_0     C     0.7174     0.5394     0.9915
A_3     C     0.7075     0.1403     0.4587
A_3     C     0.0556     0.9104     0.6825
A_2     C     0.6843     0.5745     0.7919
A_3     C     0.5865     0.4254     0.574
A_2     C     0.2262     0.0619     0.9041
A_1     C     0.3522     0.9892     0.1199
A_3     C     0.425     0.1377     0.8895
A_3     C     0.3327     0.4094     0.485
A_0     C     0.5166     0.2916     0.2608
A_1     C     0.7524     0.5382     0.0601
A_3     C     0.5699     0.3216     0.2105
A_1     C     0.3577     0.453     0.5827
A_3     C     0.8435     0.3221     0.7882
A_0     C     0.7281     0.4675     0.0608
A_0     C     0.467     0.8046     0.5342
A_3     C     0.5678     0.1597     0.4789
A_2     C     0.875     0.7333     0.2802
A_3     C     0.8413     0.2318     0.4387
A_0     C     0.4955     0.5351     0.1509
A_1     C     0.1035     0.7619     0.8777
A_0     C     0.0047     0.5558     0.6109
A_1     C     0.5532     0.7642     0.7031
A_2     C     0.8019     0.869     0.8158
A_3     C     0.0405     0.1631     0.9991
A_0     C     0.1512     0.9726     0.544
A_3     C     0.8181     0.7045     0.3232
A_2     C     0.9249     0.624     0.3108
A_3     C     0.9016     0.2894     0.7799
A_1     C     0.9608     0.5731     0.6272
A_3     C     0.7751     0.3982     0.7357
A_3     C     0.2333     0.3329     0.8437
A_3     C     0.2157     0.6462     0.4839
A_1     C     0.0803     0.889     0.9214
A_0     C     0.457     0.0529     0.6689
A_1     C     0.1195     0.2037     0.1047
A_3     C     0.9335     0.4171     0.9299
A_2     C     0.1327     0.018     0.8388
A_3     C     0.6921     0.5241     0.4224
A_1     C     0.5934     0.192     0.7153
A_0     C     0.4726     0.0688     0.5599
A_3     C     0.4994     0.4904     0.0274
A_1     C     0.2281     0.9511     0.0733
A_1     C     0.4631     0.8348     0.8538
A_3     C     0.694     0.7337     0.8331
A_3     C     0.0813     0.3295     0.1434
A_0     C     0.7998     0.3817     0.3902
A_1     C     0.2657     0.0492     0.1261
A_0     C     0.1576     0.7153     0.7759
A_3     C     0.2157     0.1359     0.0533
A_1     C     0.1706     0.8211     0.4124
A_2     C     0.1549     0.6691     0.8841
A_2     C     0.192     0.5083     0.0727
A_0     C     0.4209     0.4174     0.1357
A_2     C     0.6231     0.7573     0.5378
A_2     C     0.6507     0.1084     0.961
A_3     C     0.7731     0.2698     0.3289
A_2     C     0.7085     0.1627     0.5656
A_2     C     0.8025     0.2914     0.7703
A_1     C     0.9785     0.4676     0.3506
A_1     C     0.5589     0.5665     0.0331
A_1     C     0.2738     0.834     0.1663
A_0     C     0.5     0.1452     0.678
A_0     C     0.7065     0.3193     0.9472
A_3     C     0.4059     0.7069     0.1788
A_0     C     0.3085     0.9548     0.4531
A_3     C     0.9356     0.5651     0.9474
A_0     C     0.8536     0.9818     0.6441
A_0     C     0.0001     0.8875     0.788
A_0     C     0.3111     0.1     0.1929
A_2     C     0.6307     0.1642     0.053
A_1     C     0.2541     0.6941     0.8349
A_2     C     0.2279     0.2776     0.7586
A_2     C     0.5659     0.96     0.1172
A_2     C     0.7659     0.1106     0.256
A_0     C     0.0669     0.4755     0.2165
A_0     C     0.8061     0.1626     0.7304
A_3     C     0.9476     0.7583     0.0329
A_1     C     0.4038     0.4816     0.6744
A_3     C     0.2429     0.7762     0.4332
A_0     C     0.4795     0.4229     0.8074
A_2     C     0.9906     0.7806     0.9438
A_0     C     0.7346     0.0549     0.6784
A_2     C     0.5007     0.1864     0.2632
A_2     C     0.496     0.6495     0.4281
A_2     C     0.5325     0.2517     0.6028
A_0     C     0.5588     0.864     0.8196
A_3     C     0.7426     0.4251     0.9678
A_1     C     0.3055     0.8778     0.3787
A_1     C     0.9543     0.8158     0.4858
A_2     C     0.795     0.7284     0.3224
A_0     C     0.9803     0.309     0.4425
A_3     C     0.311     0.9383     0.3582
A_1     C     0.0944     0.2414     0.7514
A_3     C     0.8824     0.561     0.0777
A_3     C     0.0262     0.3594     0.3788
A_0     C     0.814     0.5148     0.4222
A_0     C     0.7371     0.8678     0.8806
A_0     C     0.2283     0.1057     0.8813
A_0     C     0.7023     0.1834     0.0429
A_3     C     0.9977     0.4326     0.4477
A_3     C     0.209     0.9056     0.3004
A_0     C     0.4997     0.4901     0.1494
A_1     C     0.4977     0.4259     0.8208
A_2     C     0.034     0.7544     0.6462
A_2     C     0.5706     0.548     0.6269
A_2     C     0.3556     0.8589     0.6458
A_1     C     0.9298     0.815     0.1928
A_3     C     0.8523     0.621     0.8591
A_3     C     0.6812     0.0282     0.2978
A_0     C     0.2026     0.2738     0.1339
A_2     C     0.7455     0.4446     0.2814
A_0     C     0.0903     0.0294     0.7727
A_0     C     0.9699     0.0054     0.8223
A_2     C     0.272     0.8488     0.9271
A_1     C     0.0477     0.4308     0.2494
A_3     C     0.4422     0.3506     0.9682
A_1     C     0.8733     0.0236     0.7111
A_1     C     0.9009     0.2517     0.9227
A_2     C     0.2676     0.8356     0.8629
A_3     C     0.4607     0.8712     0.155
A_2     C     0.7516     0.4871     0.6552
A_0     C     0.8836     0.1757     0.2651
A_0     C     0.5857     0.0376     0.7774
A_0     C     0.3831     0.6878     0.3724
A_2     C     0.4851     0.3763     0.7061
A_0     C     0.4319     0.0441     0.0835
A_1     C     0.0558     0.9313     0.5122
A_1     C     0.9541     0.5441     0.8419
A_3     C     0.0338     0.7353     0.6812
A_2     C     0.807     0.2727     0.401
A_3     C     0.2794     0.2286     0.5216
A_0     C     0.4656     0.825     0.028
A_2     C     0.8804     0.2525     0.7313
A_0     C     0.5276     0.4368     0.5064
A_0     C     0.028     0.848     0.7487
A_0     C     0.6642     0.433     0.95
A_1     C     0.9473     0.4757     0.5376
A_3     C     0.3278     0.2316     0.6161
A_0     C     0.5185     0.5702     0.5342
A_3     C     0.9664     0.2094     0.7229
A_1     C     0.8851     0.6703     0.8579
A_2     C     0.7411     0.7751     0.6456
A_3     C     0.9281     0.4721     0.1725
A_2     C     0.1174     0.7174     0.7866
A_1     C     0.3658     0.039     0.8051
A_1     C     0.2654     0.2495     0.7078
A_0     C     0.124     0.2064     0.4427
A_1     C     0.2133     0.3863     0.3817
A_3     C     0.5149     0.6127     0.3149
A_1     C     0.6505     0.9232     0.2826
A_2     C     0.613     0.5687     0.3273
A_1     C     0.9195     0.8913     0.2846
A_3     C     0.6677     0.126     0.6712
A_2     C     0.5577     0.3139     0.6742
A_0     C     0.8551     0.9064     0.7773
A_3     C     0.6044     0.8322     0.9832
A_0     C     0.2889     0.7111     0.4732
A_0     C     0.7196     0.2117     0.2051
A_2     C     0.0139     0.3398     0.1842
A_1     C     0.7644     0.7741     0.7287
A_1     C     0.8064     0.0007     0.1545
A_3     C     0.0588     0.0962     0.36
A_2     C     0.481     0.9721     0.2212
A_2     C     0.2383     0.7381     0.7733
A_3     C     0.4703     0.1599     0.8745
A_3     C     0.9252     0.4363     0.0687
A_0     C     0.685     0.3335     0.2911
A_0     C     0.8865     0.9213     0.7295
A_2     C     0.3075     0.9273     0.2392
A_2     C     0.4249     0.5181     0.1441
A_2     C     0.1469     0.213     0.8715
A_1     C     0.9145     0.589     0.9598
A_1     C     0.2353     0.4814     0.1868
A_0     C     0.9707     0.9071     0.5828
A_1     C     0.954     0.8912     0.112
A_0     C     0.8848     0.4483     0.8679
A_0     C     0.5106     0.7786     0.3739
A_0     C     0.5652     0.5794     0.528
A_1     C     0.5903     0.4569     0.5306
A_3     C     0.2988     0.6313     0.3183
A_3     C     0.1236     0.9957     0.4075
A_2     C     0.5992     0.5675     0.638
A_3     C     0.4787     0.0728     0.5001
A_2     C     0.4248     0.7997     0.7202
A_1     C     0.8707     0.0945     0.0622
A_2     C     0.034     0.2324     0.9731
A_1     C     0.9607     0.7824     0.081
A_2     C     0.036     0.5553     0.7537
A_1     C     0.9791     0.7419     0.4413
A_2     C     0.088     0.4351     0.2228
A_3     C     0.5132     0.8547     0.614
A_3     C     0.4337     0.7889     0.5658
A_1     C     0.5908     0.4761     0.1968
A_3     C     0.1844     0.698     0.2703
A_2     C     0.1211     0.2743     0.0618
A_3     C     0.3571     0.1766     0.3542
A_0     C     0.9145     0.3318     0.529
A_2     C     0.6821     0.8783     0.2666
A_0     C     0.3493     0.1408     0.5689
A_2     C     0.8333     0.2589     0.6597
A_0     C     0.0345     0.1228     0.4393
A_0     C     0.6538     0.1459     0.3473
A_1     C     0.7957     0.9159     0.2921
A_1     C     0.6197     0.3909     0.1065
A_2     C     0.7656     0.4804     0.4036
A_1     C     0.8802     0.0222     0.4017
A_1     C     0.922     0.5119     0.3158
A_0     C     0.4196     0.874     0.4687
A_0     C     0.2031     0.5672     0.9314
A_2     C     0.2466     0.3187     0.0761
A_2     C     0.1447     0.2859     0.4555
A_2     C     0.3828     0.7679     0.6793
A_2     C     0.0471     0.9467     0.3791
A_3     C     0.1195     0.9168     0.1407
A_0     C     0.2081     0.7535     0.4673
A_3     C     0.3357     0.7719     0.2824
A_1     C     0.3455     0.6611     0.9104
A_1     C     0.492     0.6358     0.3283
A_1     C     0.345     0.2661     0.5538
A_2     C     0.2827     0.7947     0.2262
A_3     C     0.878     0.7804     0.8847
A_2     C     0.5037     0.4097     0.7189
A_1     C     0.5854     0.7887     0.0977
A_3     C     0.6507     0.84     0.3803
A_0     C     0.2813     0.0367     0.6093
A_3     C     0.1589     0.4284     0.1571
A_1     C     0.4732     0.5004     0.6017
A_2     C     0.0457     0.9413     0.8334
A_3     C     0.5532     0.8815     0.9022
A_3     C     0.9787     0.3861     0.8029
A_3     C     0.953     0.8973     0.0899
A_1     C     0.6579     0.3398     0.3363
A_3     C     0.6512     0.9243     0.5321
A_2     C     0.8733     0.1922     0.1136
A_2     C     0.1991     0.1913     0.6309
A_2     C     0.5822     0.5019     0.7827
A_2     C     0.4714     0.4042     0.8462
A_1     C     0.9863     0.197     0.6544
A_1     C     0.5984     0.9486     0.9888
A_3     C     0.4575     0.4829     0.8867
A_0     C     0.1759     0.9202     0.168
A_0     C     0.6067     0.944     0.6206
A_1     C     0.7709     0.4462     0.7763
A_0     C     0.4201     0.1872     0.3275
A_2     C     0.0553     0.7057     0.1064
A_2     C     0.2657     0.6951     0.1439
A_0     C     0.8343     0.5805     0.7544
A_2     C     0.1859     0.5368     0.0392
A_3     C     0.4688     0.7916     0.2671
A_0     C     0.0943     0.4583     0.7615
A_1     C     0.1486     0.2932     0.1149
A_0     C     0.5505     0.5505     0.0102
A_2     C     0.7429     0.1129     0.1729
A_0     C     0.6581     0.0708     0.0678
A_2     C     0.6917     0.0001     0.3463
A_0     C     0.1359     0.6574     0.6412
A_2     C     0.154     0.3332     0.9692
A_1     C     0.586     0.1436     0.4365
A_0     C     0.2297     0.1518     0.9512
A_3     C     0.1663     0.8219     0.0022
A_1     C     0.2142     0.9702     0.6499
A_3     C     0.9723     0.0783     0.9012
A_0     C     0.2234     0.5942     0.1665
A_3     C     0.2301     0.9093     0.1262
A_3     C     0.5074     0.2132     0.8273
A_0     C     0.9148     0.1458     0.955
A_2     C     0.1687     0.0592     0.1563
A_2     C     0.2895     0.8836     0.6874
A_2     C     0.4417     0.8459     0.3277
A_3     C     0.2392     0.7426     0.3657
A_3     C     0.2041     0.201     0.347
A_1     C     0.7292     0.1245     0.3279
A_0     C     0.5175     0.6985     0.2926
A_2     C     0.4511     0.0236     0.3954
A_1     C     0.5499     0.4864     0.2896
A_2     C     0.4698     0.6565     0.3175
A_2     C     0.3822     0.4015     0.7352
A_0     C     0.5103     0.2295     0.3369
A_2     C     0.5239     0.1453     0.041
A_2     C     0.5017     0.7961     0.4789
A_3     C     0.2572     0.7997     0.7704
A_1     C     0.8283     0.4157     0.263
A_3     C     0.9117     0.44     0.1563
A_3     C     0.9276     0.7556     0.8518
A_0     C     0.0524     0.9479     0.8608
A_2     C     0.2613     0.2114     0.9133
A_1     C     0.1307     0.4075     0.3336
A_1     C     0.8466     0.6182     0.6664
A_3     C     0.7557     0.6409     0.8096
A_1     C     0.8175     0.7634     0.6201
A_0     C     0.1426     0.1854     0.6807
A_3     C     0.9585     0.6048     0.1604
A_3     C     0.8399     0.4721     0.3017
A_3     C     0.6839     0.875     0.0033
A_3     C     0.1455     0.8505     0.4466
A_1     C     0.2094     0.63     0.2487
A_2     C     0.1181     0.1275     0.0587
A_2     C     0.1877     0.2955     0.0666
A_1     C     0.1297     0.0823     0.6936
A_2     C     0.6386     0.9907     0.4692
A_1     C     0.1471     0.898     0.4789
A_0     C     0.3396     0.6412     0.1637
A_0     C     0.4534     0.227     0.8355
A_2     C     0.2422     0.5507     0.0918
A_2     C     0.2303     0.5482     0.6304
A_2     C     0.2945     0.5522     0.0137
A_3     C     0.5147     0.1205     0.0646
A_2     C     0.7879     0.1619     0.396
A_3     C     0.3696     0.5428     0.8513
A_2     C     0.0656     0.1149     0.758
A_3     C     0.3291     0.7692     0.4163
A_3     C     0.2262     0.5535     0.5772
A_3     C     0.0867     0.0871     0.5614
A_0     C     0.5093     0.2853     0.2248
A_1     C     0.7858     0.9184     0.4694
A_2     C     0.291     0.9235     0.5985
A_1     C     0.3249     0.4651     0.1579
A_0     C     0.4349     0.0862     0.5255
A_2     C     0.8955     0.9841     0.7945
A_0     C     0.171     0.9074     0.7417
A_2     C     0.3525     0.8904     0.0079
A_1     C     0.3698     0.4336     0.8521
A_3     C     0.9458     0.5109     0.5843
A_3     C     0.295     0.9271     0.6646
A_0     C     0.6942     0.6384     0.3912
A_2     C     0.7473     0.297     0.2284
A_3     C     0.6893     0.5789     0.8986
A_2     C     0.1676     0.151     0.9892
A_1     C     0.0664     0.7702     0.7807
A_0     C     0.9115     0.017     0.2985
A_3     C     0.1854     0.987     0.4841
A_2     C     0.977     0.6524     0.8408
A_0     C     0.9544     0.3072     0.3042
A_1     C     0.0986     0.9238     0.299
A_3     C     0.1069     0.5447     0.1632
A_0     C     0.1885     0.5933     0.1574
A_1     C     0.4495     0.2364     0.7538
A_1     C     0.4345     0.471     0.8052
A_2     C     0.2247     0.991     0.7348
A_0     C     0.5193     0.3001     0.1386
A_2     C     0.1468     0.9013     0.1739
A_2     C     0.4999     0.8638     0.3835
A_3     C     0.4361     0.0545     0.3188
A_2     C     0.2751     0.6138     0.648
A_1     C     0.0244     0.0371     0.0723
A_3     C     0.9152     0.0665     0.8857
A_0     C     0.9723     0.8218     0.408
A_3     C     0.9641     0.1942     0.0923
A_2     C     0.6816     0.7591     0.2337
A_2     C     0.5065     0.1916     0.5148
A_2     C     0.5994     0.9155     0.3959
A_3     C     0.1555     0.5429     0.9133
A_0     C     0.0818     0.2686     0.4488
A_3     C     0.7575     0.2552     0.8261
A_0     C     0.5994     0.198     0.2139
A_3     C     0.3046     0.7297     0.8605
A_1     C     0.343     0.4536     0.6563
A_2     C     0.4645     0.1416     0.0969
A_3     C     0.1708     0.5852     0.8423
A_0     C     0.3333     0.3093     0.4897
A_2     C     0.3279     0.0286     0.63
A_1     C     0.1781     0.2692     0.3605
A_1     C     0.8152     0.0856     0.1466
A_1     C     0.8808     0.8502     0.3552
A_1     C     0.5976     0.3593     0.4781
A_0     C     0.0163     0.3222     0.9153
A_1     C     0.8819     0.2066     0.7293
A_1     C     0.7891     0.5813     0.6501
A_0     C     0.8154     0.0101     0.7501
A_0     C     0.4242     0.6065     0.4478
A_1     C     0.0287     0.2996     0.0071
A_2     C     0.329     0.4477     0.5505
A_0     C     0.8392     0.4717     0.0638
A_3     C     0.7815     0.9192     0.8782
A_2     C     0.1591     0.9275     0.1525
A_2     C     0.1229     0.9344     0.2474
A_3     C     0.5205     0.4758     0.0454
A_1     C     0.3926     0.3395     0.354
A_0     C     0.5436     0.586     0.4514
A_1     C     0.7474     0.9918     0.3679
A_1     C     0.0408     0.925     0.4697
A_2     C     0.0461     0.4606     0.8939
A_0     C     0.7156     0.5506     0.4052
A_2     C     0.828     0.4232     0.6143
A_1     C     0.2004     0.889     0.4605
A_0     C     0.5268     0.9518     0.9572
A_0     C     0.1598     0.9915     0.4781
A_1     C     0.8406     0.8123     0.7247
A_1     C     0.2168     0.5591     0.3545
A_2     C     0.6072     0.6949     0.7196
A_2     C     0.9374     0.048     0.4627
A_0     C     0.0868     0.6405     0.1256
A_3     C     0.7137     0.812     0.1445
A_3     C     0.6897     0.45     0.3591
A_2     C     0.9075     0.9312     0.6157
A_0     C     0.7103     0.7603     0.8753
A_3     C     0.4107     0.968     0.698
A_3     C     0.8289     0.4645     0.396
A_2     C     0.4509     0.8551     0.4887
A_2     C     0.6919     0.7848     0.0862
A_2     C     0.0868     0.672     0.7619
A_2     C     0.2017     0.1372     0.546
A_0     C     0.7218     0.5905     0.3323
A_2     C     0.2596     0.7894     0.7379
A_3     C     0.4701     0.764     0.7282
A_3     C     0.8249     0.1411     0.8904
A_0     C     0.5109     0.8448     0.1252
A_3     C     0.4197     0.5216     0.3759
A_0     C     0.4147     0.0341     0.3116
A_0     C     0.9047     0.1207     0.9833
A_2     C     0.9032     0.1371     0.1524
A_1     C     0.9383     0.5601     0.952
A_1     C     0.4518     0.0458     0.2832
A_3     C     0.8263     0.5054     0.7764
A_0     C     0.9717     0.2555     0.8933
A_0     C     0.317     0.2861     0.6157
A_3     C     0.2005     0.8071     0.5427
A_3     C     0.8929     0.4449     0.1422
A_0     C     0.4994     0.7851     0.6318
A_3     C     0.6052     0.2823     0.2544
A_0     C     0.1741     0.2224     0.2002
A_3     C     0.7805     0.2789     0.1048
A_1     C     0.8933     0.2757     0.706
A_1     C     0.4688     0.1388     0.6733
A_3     C     0.4011     0.3812     0.6564
A_3     C     0.045     0.1146     0.7915
A_2     C     0.79     0.427     0.2942
A_3     C     0.0605     0.4701     0.6429
A_0     C     0.1285     0.3721     0.403
A_1     C     0.5139     0.567     0.6334
A_3     C     0.0077     0.7774     0.0135
A_2     C     0.4347     0.6369     0.2627
A_3     C     0.2587     0.1878     0.2292
A_0     C     0.4168     0.7288     0.5513
A_2     C     0.1311     0.7133     0.9651
A_2     C     0.0175     0.8613     0.2685
A_1     C     0.6349     0.2457     0.0475
A_2     C     0.5539     0.1824     0.9248
A_1     C     0.5617     0.5304     0.411
A_1     C     0.0508     0.9597     0.2203
A_3     C     0.4687     0.0943     0.7493
A_2     C     0.442     0.0972     0.4607
A_0     C     0.8454     0.0916     0.5044
A_2     C     0.6104     0.3894     0.3639
A_1     C     0.3879     0.2327     0.1474
A_0     C     0.0846     0.8363     0.8702
A_2     C     0.0328     0.0534     0.38
A_3     C     0.601     0.3248     0.1014
A_3     C     0.0479     0.8724     0.8311
A_2     C     0.8093     0.6078     0.9178
A_2     C     0.442     0.7875     0.6632
A_0     C     0.1696     0.9262     0.3701
A_1     C     0.8396     0.087     0.2328
A_1     C     0.4215     0.9805     0.4423
A_3     C     0.7876     0.5512     0.4236
A_2     C     0.4703     0.6866     0.6204
A_0     C     0.8133     0.7808     0.8777
A_3     C     0.1754     0.109     0.4658
A_1     C     0.4803     0.5135     0.6212
A_1     C     0.7502     0.2502     0.89
A_2     C     0.7848     0.4956     0.8247
A_1     C     0.0826     0.9605     0.6417
A_0     C     0.0541     0.4393     0.0952
A_2     C     0.6803     0.8281     0.9375
A_1     C     0.1709     0.3968     0.0063
A_3     C     0.5717     0.2442     0.9666
A_3     C     0.6191     0.155     0.5598
A_1     C     0.7058     0.9136     0.6963
A_1     C     0.0115     0.4889     0.0005
A_3     C     0.0102     0.1495     0.8887
A_1     C     0.3097     0.0346     0.3874
A_0     C     0.0572     0.5197     0.9963
A_1     C     0.1442     0.2307     0.0361
A_3     C     0.8683     0.1638     0.671
A_1     C     0.0686     0.5307     0.0817
A_0     C     0.3375     0.7928     0.2579
A_1     C     0.7282     0.1122     0.2385
A_1     C     0.5634     0.0252     0.2493
A_2     C     0.5328     0.5396     0.348
A_0     C     0.0735     0.0698     0.489
A_3     C     0.1702     0.6699     0.5348
A_1     C     0.4358     0.1022     0.0349
A_3     C     0.568     0.9829     0.5943
A_1     C     0.9123     0.9982     0.1452
A_2     C     0.4211     0.4199     0.5658
A_3     C     0.9945     0.448     0.0348
A_1     C     0.0966     0.9944     0.6318
A_0     C     0.2166     0.1711     0.1088
A_1     C     0.926     0.6902     0.1211
A_0     C     0.5257     0.5685     0.0301
A_2     C     0.2482     0.4413     0.5141
A_1     C     0.8686     0.1074     0.0012
A_3     C     0.5398     0.2898     0.1889
A_2     C     0.9422     0.2813     0.6155
A_1     C     0.1828     0.2582     0.2606
A_0     C     0.8783     0.8183     0.4317
A_2     C     0.8835     0.4073     0.2689
A_1     C     0.8839     0.1954     0.1366
A_0     C     0.34     0.9995     0.8277
A_2     C     0.1315     0.4214     0.2875
A_3     C     0.1009     0.4102     0.6581
A_1     C     0.4959     0.2609     0.5653
A_3     C     0.0354     0.9783     0.0242
A_3     C     0.3163     0.2066     0.165
A_3     C     0.4155     0.5404     0.7243
A_2     C     0.5483     0.225     0.225
A_2     C     0.9321     0.7076     0.872
A_2     C     0.4704     0.0314     0.3755
A_3     C     0.0665     0.1402     0.8399
A_3     C     0.8506     0.3446     0.6998
A_2     C     0.3577     0.6169     0.7184
A_0     C     0.9553     0.3959     0.0257
A_3     C     0.9004     0.7018     0.0673
A_0     C     0.6699     0.6205     0.7513
A_1     C     0.244     0.7024     0.5302
A_1     C     0.4246     0.0821     0.5239
A_3     C     0.522     0.2895     0.185
A_1     C     0.0962     0.9973     0.8192
A_0     C     0.4708     0.3793     0.8865
A_1     C     0.2483     0.6898     0.2107
A_1     C     0.0202     0.1867     0.881
A_3     C     0.9623     0.5025     0.541
A_2     C     0.0744     0.5291     0.9548
A_0     C     0.4643     0.1162     0.9435
A_3     C     0.3062     0.7728     0.1616
A_1     C     0.2347     0.6521     0.7227
A_0     C     0.6745     0.5991     0.9754
A_1     C     0.4739     0.4075     0.3184
A_3     C     0.1384     0.7551     0.5504
A_0     C     0.099     0.1213     0.0219
A_1     C     0.1648     0.7964     0.6149
A_2     C     0.0735     0.5311     0.1166
A_0     C     0.9899     0.8646     0.101
A_3     C     0.1898     0.9137     0.3605
A_1     C     0.0577     0.2696     0.9352
A_2     C     0.0547     0.0503     0.8294
A_0     C     0.9303     0.0786     0.1326
A_3     C     0.1839     0.5934     0.7189
A_1     C     0.7392     0.8468     0.5439
A_3     C     0.1897     0.7804     0.9572
A_3     C     0.3458     0.5198     0.0586
A_1     C     0.4155     0.0809     0.5675
A_0     C     0.3887     0.5371     0.082
A_0     C     0.999     0.5629     0.2819
A_3     C     0.4848     0.0849     0.1335
A_3     C     0.546     0.1482     0.65
A_0     C     0.9486     0.9963     0.8139
A_3     C     0.6244     0.8916     0.3211
A_0     C     0.0177     0.854     0.3725
A_0     C     0.3396     0.9818     0.742
A_2     C     0.3009     0.0454     0.0739
A_0     C     0.0001     0.9279     0.3895
A_0     C     0.0279     0.4524     0.416
A_1     C     0.7837     0.8555     0.0788
A_2     C     0.7796     0.4069     0.2655
A_3     C     0.2948     0.1742     0.1957
A_1     C     0.9676     0.098     0.9259
A_0     C     0.507     0.7048     0.9818
A_0     C     0.4938     0.1635     0.476
A_3     C     0.6232     0.0662     0.3279
A_2     C     0.4363     0.23     0.9475
A_2     C     0.5666     0.5071     0.0103
A_1     C     0.4302     0.7173     0.3261
A_3     C     0.4856     0.378     0.3396
A_0     C     0.8724     0.3394     0.9944
A_3     C     0.4099     0.3832     0.2672
A_0     C     0.9944     0.2645     0.2785
A_3     C     0.2058     0.6034     0.7635
A_0     C     0.3502     0.7613     0.9087
A_2     C     0.6046     0.4249     0.729
A_2     C     0.2286     0.6378     0.1825
A_0     C     0.4782     0.3492     0.904
A_1     C     0.6948     0.745     0.4809
A_3     C     0.634     0.6896     0.7931
A_0     C     0.6154     0.4245     0.3956
A_1     C     0.107     0.8865     0.8405
A_2     C     0.6057     0.6205     0.5013
A_1     C     0.1389     0.4121     0.9433
A_0     C     0.6449     0.5721     0.4708
A_1     C     0.1889     0.8839     0.0317
A_0     C     0.105     0.8537     0.5914
A_1     C     0.5726     0.8172     0.6909
A_2     C     0.8997     0.5141     0.4638
A_0     C     0.9576     0.9801     0.4406
A_0     C     0.109     0.1417     0.5133
A_1     C     0.5139     0.0167     0.4266
A_2     C     0.3591     0.0888     0.6961
A_0     C     0.1629     0.9584     0.3176
A_1     C     0.2891     0.81     0.7832
A_0     C     0.7341     0.0254     0.1753
A_3     C     0.3519     0.5792     0.0856
A_1     C     0.732     0.6783     0.1673
A_1     C     0.7675     0.2222     0.4879
A_2     C     0.7303     0.0379     0.2219
A_1     C     0.0089     0.6798     0.285
A_2     C     0.5533     0.9997     0.7339
A_1     C     0.9636     0.2712     0.3329
A_3     C     0.6464     0.273     0.7223
A_0     C     0.4719     0.6729     0.3498
A_2     C     0.0159     0.7147     0.2668
A_1     C     0.7136     0.1143     0.9909
A_0     C     0.2034     0.6527     0.4711
A_3     C     0.3735     0.371     0.3607
A_1     C     0.0851     0.2239     0.7721
A_1     C     0.6012     0.5613     0.4877
A_2     C     0.9575     0.3011     0.3979
A_3     C     0.9342     0.2825     0.3397
A_0     C     0.9142     0.5754     0.1478
A_0     C     0.2478     0.9488     0.0294
A_0     C     0.6848     0.1887     0.8748
A_3     C     0.3366     0.7685     0.6362
A_2     C     0.4596     0.8598     0.9582
A_2     C     0.6087     0.7919     0.4189
A_0     C     0.9141     0.6135     0.1073
A_3     C     0.5922     0.2796     0.841
A_3     C     0.2436     0.48     0.415
A_0     C     0.6628     0.6459     0.5954
A_2     C     0.5973     0.1894     0.8144
A_0     C     0.3543     0.4831     0.3133
A_2     C     0.7656     0.8622     0.8086
A_2     C     0.1592     0.7874     0.9928
A_3     C     0.4988     0.6239     0.0754
A_2     C     0.3531     0.5351     0.309
A_2     C     0.8416     0.2266     0.6272
A_1     C     0.3472     0.2151     0.4485
A_2     C     0.2872     0.0702     0.7002
A_0     C     0.3414     0.5678     0.1152
A_3     C     0.1203     0.9772     0.4687
A_3     C     0.3047     0.081     0.8594
A_3     C     0.8444     0.8249     0.537
A_1     C     0.4496     0.7554     0.2768
A_2     C     0.8935     0.458     0.6586
A_3     C     0.6919     0.4949     0.4964
A_0     C     0.471     0.1805     0.418
A_3     C     0.9452     0.1659     0.4292
A_0     C     0.7305     0.2338     0.8431
A_0     C     0.501     0.0219     0.4208
A_0     C     0.1685     0.5247     0.5509
A_0     C     0.6939     0.7123     0.6165
A_0     C     0.9102     0.866     0.7681
A_3     C     0.5109     0.5888     0.3868
A_2     C     0.8718     0.4358     0.0586
A_2     C     0.2072     0.4051     0.3801
A_0     C     0.4365     0.982     0.3164
A_1     C     0.5455     0.7515     0.6357
A_0     C     0.993     0.8932     0.2462
A_3     C     0.0016     0.3492     0.5888
A_0     C     0.8119     0.1253     0.8476
A_0     C     0.2317     0.2513     0.1546
A_0     C     0.06     0.209     0.1646
A_3     C     0.4598     0.7701     0.0139
A_1     C     0.7264     0.4744     0.9612
A_3     C     0.2767     0.5984     0.444
A_2     C     0.0999     0.0644     0.9409
A_2     C     0.8808     0.744     0.9666
A_2     C     0.7022     0.8877     0.6603
A_1     C     0.7724     0.3466     0.3453
A_0     C     0.6715     0.6543     0.6082
A_1     C     0.8139     0.5294     0.3673
A_0     C     0.8868     0.037     0.8391
A_0     C     0.0816     0.4545     0.6047
A_2     C     0.1612     0.5954     0.949
A_2     C     0.1075     0.6515     0.0582
A_1     C     0.3636     0.9185     0.7616
A_2     C     0.6772     0.4543     0.5532
A_2     C     0.6609     0.8361     0.8474
A_1     C     0.2579     0.7705     0.9069
A_0     C     0.7114     0.6676     0.4068
A_3     C     0.8408     0.4389     0.8904
A_1     C     0.5209     0.7786     0.0423
A_3     C     0.5462     0.816     0.7207
A_2     C     0.8821     0.4848     0.7692
A_1     C     0.9879     0.5146     0.8347
A_1     C     0.3851     0.4121     0.0096
A_3     C     0.9817     0.4351     0.901
A_1     C     0.1643     0.7355     0.8174
A_2     C     0.1224     0.9613     0.9308
A_1     C     0.4508     0.6745     0.2289
A_1     C     0.8495     0.0848     0.6811
A_3     C     0.7497     0.1829     0.8711
A_0     C     0.4195     0.057     0.9881
A_2     C     0.6269     0.6993     0.0844
A_3     C     0.1994     0.0164     0.1143
A_0     C     0.3085     0.7981     0.3704
A_3     C     0.1117     0.4157     0.1029
A_2     C     0.2876     0.1517     0.2456
A_2     C     0.4676     0.3318     0.5914
A_2     C     0.3569     0.1011     0.363
A_0     C     0.0479     0.3601     0.0641
A_1     C     0.4067     0.3834     0.7665
A_0     C     0.3636     0.0321     0.3152
A_3     C     0.1687     0.8057     0.1718
A_0     C     0.8098     0.6622     0.6432
A_2     C     0.754     0.1351     0.0636
A_2     C     0.527     0.1306     0.152
A_1     C     0.2523     0.1027     0.6255
A_2     C     0.9371     0.4112     0.8114
A_2     C     0.0105     0.721     0.2613
A_2     C     0.0244     0.3071     0.8355
A_2     C     0.6957     0.4347     0.0073
A_3     C     0.475     0.8645     0.5084
A_3     C     0.0228     0.3017     0.0716
A_3     C     0.1128     0.5695     0.779
A_3     C     0.0154     0.1742     0.6898
A_2     C     0.725     0.1027     0.8661
A_0     C     0.4255     0.3039     0.1778
A_2     C     0.3959     0.8318     0.7734
A_0     C     0.1691     0.1064     0.5062
A_0     C     0.6528     0.7519     0.7862
A_1     C     0.6126     0.8196     0.0066
A_2     C     0.9496     0.251     0.9445
A_3     C     0.1798     0.5971     0.1242
A_1     C     0.3921     0.6584     0.2566
A_0     C     0.3982     0.2594     0.6414
A_1     C     0.6291     0.5532     0.8621
A_1     C     0.6108     0.3579     0.5374
A_3     C     0.2963     0.6663     0.1974
A_1     C     0.8161     0.9688     0.5216
A_1     C     0.5504     0.1569     0.5136
A_0     C     0.8326     0.5331     0.7571
A_0     C     0.8009     0.1734     0.0993
A_3     C     0.4759     0.8453     0.1104
A_1     C     0.2545     0.1212     0.8004
A_3     C     0.6075     0.3308     0.5665
A_3     C     0.5324     0.5231     0.3775
A_2     C     0.6662     0.1599     0.4736
A_0     C     0.6351     0.6344     0.3291
A_2     C     0.2723     0.6856     0.6313
A_0     C     0.6638     0.454     0.2316
A_2     C     0.8777     0.5154     0.3367
A_0     C     0.4985     0.1411     0.5697
A_1     C     0.1224     0.841     0.2463
A_0     C     0.5399     0.2668     0.3761
A_1     C     0.3506     0.7558     0.8204
A_0     C     0.8037     0.0439     0.9688
A_1     C     0.7749     0.9997     0.6399
A_0     C     0.5023     0.0968     0.422
A_3     C     0.989     0.2049     0.7378
A_3     C     0.4983     0.3152     0.8721
A_3     C     0.0415     0.2252     0.5572
A_2     C     0.4163     0.3796     0.954
A_0     C     0.0814     0.3362     0.9019
A_3     C     0.6205     0.9814     0.018
A_1     C     0.2592     0.3736     0.2546
A_0     C     0.0692     0.2151     0.6276
A_1     C     0.3994     0.9597     0.7374
A_0     C     0.0294     0.0346     0.4081
A_3     C     0.0537     0.3537     0.9356
A_2     C     0.6473     0.3769     0.5709
A_1     C     0.7415     0.4394     0.6202
A_2     C     0.5786     0.7991     0.3342
A_3     C     0.8106     0.7926     0.2757
A_2     C     0.7306     0.7603     0.6103
A_2     C     0.5946     0.3567     0.9831
A_0     C     0.1069     0.5156     0.4348
A_2     C     0.897     0.3765     0.0292
A_3     C     0.4935     0.1413     0.4322
A_2     C     0.7612     0.5114     0.221
A_0     C     0.7214     0.7092     0.0467
A_2     C     0.0513     0.5508     0.5909
A_3     C     0.8171     0.4521     0.1347
A_2     C     0.7777     0.7515     0.1077
A_0     C     0.9557     0.4258     0.6853
A_2     C     0.4426     0.8985     0.2905
A_2     C     0.5113     0.7975     0.6098
A_3     C     0.7129     0.3499     0.7583
A_2     C     0.5523     0.3032     0.4197
A_1     C     0.6538     0.2144     0.8581
A_2     C     0.9315     0.9752     0.5894
A_1     C     0.737     0.371     0.3275
A_0     C     0.9254     0.3932     0.1349
A_1     C     0.8176     0.1941     0.2586
A_1     C     0.0048     0.2394     0.6361
A_0     C     0.7562     0.978     0.5555
A_1     C     0.373     0.0594     0.6083
A_1     C     0.3143     0.174     0.2914
A_3     C     0.7908     0.8919     0.5912
A_3     C     0.8694     0.4207     0.601
A_1     C     0.0886     0.3965     0.3185
A_0     C     0.269     0.9912     0.7834
A_3     C     0.4034     0.9394     0.7211
A_2     C     0.3781     0.8142     0.1288
A_1     C     0.281     0.6608     0.1222
A_3     C     0.7408     0.1094     0.0588
A_2     C     0.7635     0.0597     0.9836
A_3     C     0.0831     0.495     0.5327
A_1     C     0.7882     0.5509     0.2076
A_1     C     0.8313     0.1247     0.4933
A_3     C     0.3955     0.2359     0.1209
A_2     C     0.4591     0.2545     0.6468
A_3     C     0.7749     0.6208     0.7834
A_1     C     0.5535     0.4229     0.5034
A_2     C     0.2543     0.5331     0.2478
A_1     C     0.9956     0.6309     0.6878
A_2     C     0.1188     0.8524     0.8664
A_0     C     0.8987     0.5429     0.8443
A_3     C     0.3444     0.0243     0.7723
A_2     C     0.4092     0.1252     0.2831
A_3     C     0.4083     0.3516     0.9149
A_3     C     0.9633     0.0672     0.4495
A_0     C     0.9865     0.083     0.9325
A_0     C     0.5115     0.3604     0.205
A_3     C     0.3673     0.5547     0.4874
A_3     C     0.6969     0.1704     0.8179
A_1     C     0.3758     0.2224     0.5326
A_2     C     0.6866     0.159     0.2705
A_2     C     0.5879     0.5121     0.7755
A_3     C     0.2025     0.5141     0.2705
A_3     C     0.7657     0.8172     0.3016
A_0     C     0.8257     0.9068     0.0994
A_0     C     0.4897     0.6212     0.0101
A_1     C     0.127     0.5644     0.8968
A_1     C     0.5106     0.6335     0.3593
A_3     C     0.7915     0.236     0.7561
A_0     C     0.6817     0.9954     0.2096
A_3     C     0.5562     0.8689     0.2365
A_2     C     0.8638     0.611     0.2333
A_3     C     0.2662     0.6299     0.0326
A_0     C     0.3357     0.8892     0.1092
A_0     C     0.6017     0.5757     0.9694
A_2     C     0.1618     0.6943     0.0124
A_1     C     0.8373     0.6264     0.287
A_1     C     0.0801     0.8045     0.9113
A_2     C     0.9857     0.4184     0.3008
A_0     C     0.9616     0.1916     0.915
A_3     C     0.5904     0.9268     0.8086
A_2     C     0.5203     0.645     0.2399
A_1     C     0.1691     0.0107     0.3628
A_3     C     0.5154     0.2422     0.9907
A_0     C     0.6227     0.5639     0.6359
A_3     C     0.4081     0.5296     0.1112
A_3     C     0.5921     0.2309     0.0084
A_2     C     0.4917     0.8562     0.4309
A_0     C     0.5713     0.2214     0.5662
A_1     C     0.4273     0.1534     0.2603
A_1     C     0.5718     0.1793     0.119
A_1     C     0.5131     0.6582     0.8742
A_2     C     0.7904     0.2424     0.8444
A_0     C     0.9077     0.723     0.1268
A_3     C     0.5838     0.0652     0.6099
A_1     C     0.7134     0.6031     0.0966
A_1     C     0.7971     0.3022     0.7574
A_3     C     0.7278     0.0691     0.2043
A_2     C     0.1435     0.9225     0.0875
A_1     C     0.0195     0.8149     0.6306
A_0     C     0.2756     0.4235     0.2765
A_1     C     0.8416     0.6576     0.1419
A_3     C     0.3351     0.7218     0.6523
A_0     C     0.4688     0.0632     0.8557
A_2     C     0.4389     0.9805     0.4551
A_3     C     0.4431     0.0578     0.0001
A_0     C     0.7609     0.3461     0.5761
A_2     C     0.7508     0.0684     0.5651
A_0     C     0.0181     0.8058     0.5927
A_3     C     0.4393     0.9808     0.5674
A_0     C     0.8909     0.6108     0.2517
A_3     C     0.9408     0.1828     0.0447
A_0     C     0.8751     0.4606     0.7117
A_3     C     0.8764     0.4333     0.408
A_0     C     0.0965     0.0718     0.1878
A_0     C     0.7945     0.3752     0.383
A_2     C     0.1137     0.4688     0.0811
A_0     C     0.2003     0.6474     0.6277
A_1     C     0.913     0.6023     0.4693
A_0     C     0.5451     0.3593     0.5854
A_3     C     0.4569     0.5383     0.6545
A_2     C     0.9072     0.5736     0.0697
A_0     C     0.9613     0.775     0.6213
A_3     C     0.374     0.058     0.8321
A_1     C     0.7423     0.9207     0.2137
A_3     C     0.0829     0.8808     0.2824
A_1     C     0.3148     0.3522     0.2835
A_2     C     0.5405     0.2632     0.8833
A_1     C     0.3882     0.4376     0.4103
A_2     C     0.6847     0.4314     0.9843
A_2     C     0.7754     0.632     0.5248
A_3     C     0.5     0.9618     0.4777
A_1     C     0.4298     0.074     0.7886
A_3     C     0.7788     0.8244     0.8702
A_2     C     0.6396     0.6311     0.3002
A_0     C     0.5009     0.6252     0.2033
A_2     C     0.8448     0.3079     0.6097
A_2     C     0.7451     0.4776     0.057
A_3     C     0.4817     0.9928     0.9358
A_3     C     0.1155     0.2258     0.1573
A_2     C     0.0835     0.0677     0.6831
A_3     C     0.4575     0.3104     0.106
A_3     C     0.7914     0.1269     0.6393
A_0     C     0.8932     0.4428     0.875
A_3     C     0.7808     0.8564     0.4915
A_1     C     0.9309     0.1581     0.6879
A_2     C     0.7043     0.4875     0.174
A_3     C     0.7075     0.3627     0.4585
A_1     C     0.3851     0.7001     0.9461
A_1     C     0.6886     0.6519     0.8231
A_0     C     0.1384     0.5307     0.3944
A_1     C     0.2166     0.568     0.0105
A_2     C     0.5191     0.6489     0.3781
A_0     C     0.3445     0.4539     0.6793
A_0     C     0.2363     0.4928     0.845
A_3     C     0.2496     0.084     0.5757
A_2     C     0.1403     0.6971     0.8877
A_0     C     0.9901     0.0276     0.3299
A_2     C     0.8757     0.6497     0.2882
A_3     C     0.6639     0.4113     0.0634
A_0     C     0.9374     0.966     0.9784
A_1     C     0.6463     0.2643     0.9138
A_2     C     0.3659     0.1112     0.8035
A_3     C     0.6665     0.5542     0.6582
A_3     C     0.8614     0.4475     0.4491
A_0     C     0.3894     0.2314     0.2381
A_1     C     0.6179     0.8877     0.2894
A_1     C     0.6488     0.844     0.6627
A_1     C     0.8305     0.805     0.8733
A_2     C     0.1964     0.1401     0.4184
A_2     C     0.3736     0.8992     0.0342
A_1     C     0.5509     0.5517     0.6902
A_0     C     0.7047     0.9891     0.8119
A_3     C     0.0344     0.4148     0.4168
A_1     C     0.4704     0.9508     0.3476
A_2     C     0.5438     0.885     0.643
A_1     C     0.4651     0.2331     0.1519
A_1     C     0.0905     0.9574     0.5398
A_2     C     0.298     0.4825     0.6168
A_2     C     0.39     0.5783     0.7568
A_1     C     0.6956     0.9676     0.0451
A_1     C     0.3775     0.3366     0.1865
A_3     C     0.9916     0.8774     0.1046
A_0     C     0.8196     0.8938     0.0516
A_0     C     0.1962     0.2007     0.013
A_3     C     0.1708     0.9527     0.6785
A_3     C     0.1217     0.3102     0.2601
A_2     C     0.8545     0.5874     0.8906
A_3     C     0.8348     0.1049     0.8066
A_2     C     0.1117     0.341     0.1238
A_2     C     0.8677     0.6261     0.4262
A_3     C     0.5721     0.1066     0.5887
A_2     C     0.3517     0.7096     0.2693
A_1     C     0.8903     0.6348     0.5035
A_3     C     0.0869     0.6373     0.5334
A_1     C     0.3577     0.6481     0.8452
A_0     C     0.6222     0.5641     0.8615
A_1     C     0.959     0.992     0.5334
A_1     C     0.0857     0.7377     0.9663
A_0     C     0.0856     0.0911     0.403
A_3     C     0.7518     0.7571     0.7245
A_3     C     0.7503     0.4982     0.5824
A_0     C     0.8127     0.8356     0.8008
A_2     C     0.7618     0.0164     0.6275
A_3     C     0.785     0.7318     0.7883
A_3     C     0.0738     0.091     0.2991
A_2     C     0.5266     0.6316     0.1965
A_0     C     0.4435     0.6416     0.5782
A_2     C     0.9296     0.8476     0.0921
A_0     C     0.8894     0.6973     0.8392
A_3     C     0.8718     0.3101     0.662
A_2     C     0.3833     0.8462     0.0506
A_0     C     0.6201     0.8301     0.5074
A_3     C     0.765     0.992     0.1639
A_1     C     0.986     0.0876     0.3358
A_1     C     0.4693     0.7509     0.1048
A_0     C     0.2759     0.5982     0.6327
A_2     C     0.626     0.4611     0.206
A_3     C     0.6379     0.7072     0.2208
A_1     C     0.804     0.9841     0.6669
A_1     C     0.9933     0.3122     0.6943
A_0     C     0.5747     0.2035     0.405
A_3     C     0.8482     0.7811     0.7417
A_1     C     0.6493     0.3541     0.2995
A_1     C     0.5391     0.7078     0.7664
A_2     C     0.9834     0.5211     0.3047
A_3     C     0.323     0.6394     0.6912
A_3     C     0.2239     0.8447     0.8537
A_2     C     0.7229     0.8016     0.9824
A_2     C     0.3358     0.2908     0.4624
A_3     C     0.9049     0.648     0.2924
A_1     C     0.7604     0.1944     0.7514
A_3     C     0.8163     0.0131     0.5984
A_3     C     0.3669     0.335     0.6827
A_1     C     0.4199     0.4007     0.3785
A_2     C     0.4746     0.1294     0.9621
A_2     C     0.397     0.3744     0.8944
A_1     C     0.0501     0.132     0.8478
A_2     C     0.8579     0.3524     0.9848
A_1     C     0.7691     0.7691     0.4607
A_2     C     0.3442     0.5742     0.0635
A_0     C     0.5479     0.9654     0.8235
A_1     C     0.0831     0.0555     0.7226
A_1     C     0.8461     0.4376     0.5408
A_2     C     0.1377     0.967     0.8056
A_2     C     0.2938     0.6816     0.4391
A_3     C     0.1908     0.642     0.7132
A_3     C     0.7255     0.9929     0.2773
A_2     C     0.8286     0.7273     0.167
A_0     C     0.8463     0.1026     0.3138
A_3     C     0.1899     0.738     0.9279
A_2     C     0.9133     0.0509     0.8321
A_0     C     0.8521     0.6862     0.4587
A_2     C     0.5639     0.1939     0.3043
A_0     C     0.4193     0.8904     0.0455
A_1     C     0.4325     0.9072     0.926
A_2     C     0.25     0.558     0.9233
A_0     C     0.7993     0.9513     0.9865
A_0     C     0.9932     0.2238     0.3604
A_2     C     0.2023     0.8085     0.5974
A_0     C     0.2866     0.2136     0.0529
A_3     C     0.0108     0.1451     0.6572
A_2     C     0.5949     0.1137     0.089
A_3     C     0.6827     0.569     0.9167
A_3     C     0.6251     0.4817     0.5064
A_0     C     0.351     0.7084     0.35
A_0     C     0.2759     0.8001     0.5147
A_0     C     0.29     0.8462     0.6015
A_3     C     0.7005     0.4063     0.4004
A_0     C     0.3441     0.3224     0.924
A_2     C     0.0254     0.6662     0.7746
A_2     C     0.4272     0.7665     0.7956
A_3     C     0.0808     0.5577     0.7334
A_3     C     0.2794     0.0313     0.572
A_0     C     0.3699     0.6531     0.8657
A_1     C     0.8709     0.1461     0.2093
A_0     C     0.4331     0.5     0.2003
A_2     C     0.6876     0.9912     0.7261
A_3     C     0.447     0.7042     0.0627
A_1     C     0.8768     0.9062     0.6776
A_3     C     0.1347     0.8468     0.8725
A_0     C     0.5711     0.0015     0.122
A_2     C     0.3867     0.892     0.9284
A_2     C     0.1574     0.0454     0.3418
A_3     C     0.1719     0.2228     0.7624
A_1     C     0.6014     0.063     0.9279
A_3     C     0.3611     0.66     0.7918
A_3     C     0.3004     0.6051     0.1073
A_2     C     0.9448     0.1763     0.7448
A_3     C     0.6937     0.3034     0.4115
A_1     C     0.6186     0.8604     0.4462
A_2     C     0.9019     0.3687     0.924
A_2     C     0.7882     0.7436     0.1682
A_3     C     0.5512     0.5916     0.6703
A_3     C     0.7593     0.0174     0.5293
A_2     C     0.6695     0.7534     0.8939
A_1     C     0.653     0.3198     0.687
A_1     C     0.221     0.5503     0.953
A_2     C     0.9463     0.5103     0.8861
A_0     C     0.7745     0.8736     0.2715
A_3     C     0.8035     0.8678     0.2749
A_2     C     0.359     0.5036     0.8941
A_0     C     0.5048     0.5185     0.4297
A_0     C     0.3867     0.3225     0.3839
A_1     C     0.0773     0.6968     0.7174
A_0     C     0.2484     0.8385     0.3103
A_3     C     0.4428     0.2149     0.2012
A_1     C     0.7746     0.183     0.3706
A_3     C     0.8781     0.0534     0.9802
A_3     C     0.9694     0.4502     0.6005
A_2     C     0.6669     0.2122     0.1094
A_2     C     0.6634     0.4223     0.118
A_0     C     0.1912     0.6505     0.9446
A_2     C     0.1858     0.0401     0.8459
A_3     C     0.2525     0.2353     0.1975
A_1     C     0.7072     0.7611     0.4208
A_2     C     0.8173     0.4983     0.0666
A_0     C     0.2277     0.598     0.3299
A_3     C     0.403     0.6549     0.8438
A_0     C     0.3497     0.1545     0.9297
A_2     C     0.6991     0.8872     0.6546
A_1     C     0.8585     0.3406     0.8615
A_0     C     0.8149     0.8815     0.7478
A_0     C     0.5222     0.4728     0.1168
A_0     C     0.7708     0.4777     0.1601
A_0     C     0.0686     0.0624     0.05
A_2     C     0.1952     0.4649     0.6017
A_0     C     0.5698     0.7362     0.2406
A_1     C     0.6459     0.6207     0.7308
A_2     C     0.0585     0.92     0.0272
A_3     C     0.0357     0.5731     0.6865
A_0     C     0.3509     0.8752     0.0891
A_1     C     0.5878     0.0937     0.4015
A_1     C     0.077     0.6991     0.5464
A_3     C     0.0953     0.1724     0.0506
A_2     C     0.79     0.6498     0.6282
A_2     C     0.9266     0.5069     0.3318
A_1     C     0.3987     0.9437     0.5286
A_1     C     0.4437     0.3709     0.9048
A_2     C     0.2157     0.5094     0.6321
A_1     C     0.9748     0.321     0.5803
A_1     C     0.7089     0.9621     0.2391
A_1     C     0.8212     0.188     0.5393
A_0     C     0.3519     0.7927     0.9047
A_3     C     0.8029     0.0249     0.764
A_2     C     0.8345     0.4889     0.1258
A_3     C     0.4218     0.1919     0.7116
A_0     C     0.7102     0.91     0.201
A_2     C     0.6986     0.1017     0.7714
A_0     C     0.5445     0.571     0.2534
A_0     C     0.2517     0.5824     0.7847
A_1     C     0.8501     0.9393     0.0189
A_1     C     0.5976     0.5461     0.1569
A_0     C     0.7595     0.2901     0.1404
A_0     C     0.5466     0.4511     0.6974
A_1     C     0.7355     0.4357     0.5192
A_1     C     0.2489     0.8091     0.4145
A_2     C     0.9879     0.0241     0.1742
A_3     C     0.5484     0.084     0.0803
A_0     C     0.933     0.256     0.3127
A_2     C     0.4105     0.312     0.0227
A_0     C     0.2858     0.6544     0.9932
A_3     C     0.2187     0.8248     0.0507
A_2     C     0.0751     0.5885     0.6916
A_3     C     0.5136     0.0149     0.9566
A_1     C     0.4496     0.5384     0.6956
A_2     C     0.4034     0.3392     0.7198
A_1     C     0.5923     0.4748     0.6359
A_2     C     0.8555     0.3181     0.0184
A_3     C     0.4348     0.041     0.1531
A_2     C     0.798     0.9466     0.4843
A_1     C     0.7424     0.1014     0.2348
A_1     C     0.4758     0.4147     0.485
A_2     C     0.3421     0.3041     0.0945
A_0     C     0.1948     0.4661     0.1794
A_0     C     0.4147     0.3278     0.1772
A_0     C     0.1584     0.905     0.616
A_0     C     0.0149     0.7553     0.4443
A_3     C     0.8855     0.4869     0.133
A_2     C     0.0329     0.9363     0.4103
A_2     C     0.7597     0.4785     0.3237
A_3     C     0.5248     0.1839     0.2381
A_3     C     0.5858     0.873     0.4218
A_3     C     0.269     0.4995     0.7113
A_2     C     0.2697     0.5989     0.5702
A_0     C     0.8865     0.9592     0.5845
A_1     C     0.3429     0.0844     0.9036
A_0     C     0.2609     0.7164     0.8719
A_0     C     0.4042     0.3295     0.0485
A_3     C     0.9463     0.402     0.4722
A_0     C     0.9432     0.6348     0.0679
A_2     C     0.1953     0.089     0.1152
A_1     C     0.0804     0.1145     0.9886
A_3     C     0.265     0.5537     0.4224
A_0     C     0.377     0.1258     0.42
A_1     C     0.3401     0.9817     0.2138
A_2     C     0.1657     0.6361     0.2346
A_0     C     0.8973     0.9211     0.7039
A_1     C     0.607     0.9559     0.1428
A_3     C     0.393     0.1192     0.6725
A_1     C     0.7889     0.4999     0.767
A_3     C     0.4875     0.9254     0.5174
A_1     C     0.5712     0.8663     0.6671
A_3     C     0.0814     0.961     0.9172
A_0     C     0.3545     0.532     0.1533
A_2     C     0.4498     0.9758     0.6577
A_1     C     0.9415     0.0891     0.8328
A_2     C     0.0928     0.9316     0.7974
A_1     C     0.9637     0.7523     0.0287
A_3     C     0.1014     0.4629     0.9171
A_3     C     0.3358     0.4842     0.5231
A_0     C     0.7738     0.9654     0.902
A_2     C     0.4636     0.5146     0.6254
A_1     C     0.138     0.9742     0.1598
A_3     C     0.9722     0.0562     0.9425
A_1     C     0.2862     0.5711     0.6072
A_1     C     0.1039     0.1266     0.4836
A_0     C     0.3575     0.9993     0.674
A_3     C     0.8056     0.3296     0.2213
A_3     C     0.8241     0.8604     0.2573
A_2     C     0.4453     0.4632     0.1193
A_1     C     0.6423     0.1534     0.1284
A_3     C     0.8052     0.0666     0.6008
A_1     C     0.6397     0.4934     0.5688
A_3     C     0.9414     0.3059     0.596
A_0     C     0.9644     0.4245     0.5394
A_3     C     0.9916     0.5506     0.766
A_3     C     0.0627     0.2333     0.9477
A_2     C     0.8624     0.4023     0.1395
A_1     C     0.4066     0.8501     0.9171
A_3     C     0.9382     0.8594     0.7779
A_2     C     0.0998     0.8302     0.7736
A_3     C     0.74     0.1876     0.6215
A_0     C     0.116     0.5694     0.9069
A_2     C     0.2242     0.5945     0.4574
A_0     C     0.6121     0.0233     0.3008
A_2     C     0.5907     0.7661     0.8865
A_3     C     0.865     0.3598     0.2053
A_2     C     0.3417     0.9029     0.5607
A_1     C     0.0253     0.2275     0.7829
A_0     C     0.0148     0.8252     0.1183
A_0     C     0.5152     0.8795     0.0131
A_1     C     0.5168     0.5379     0.0785
A_1     C     0.8113     0.1808     0.9001
A_1     C     0.7125     0.5729     0.0247
A_2     C     0.9609     0.0926     0.6853
A_1     C     0.6046     0.5883     0.8442
A_3     C     0.7653     0.0938     0.7845
A_3     C     0.0483     0.8843     0.3838
A_2     C     0.6438     0.7333     0.206
A_3     C     0.0593     0.3835     0.1923
A_2     C     0.5018     0.4706     0.7521
A_1     C     0.6986     0.885     0.1153
A_1     C     0.3514     0.1359     0.3048
A_2     C     0.963     0.6006     0.9344
A_2     C     0.745     0.2917     0.0169
A_0     C     0.1227     0.3294     0.764
A_1     C     0.9092     0.5462     0.2822
A_0     C     0.9293     0.5949     0.1723
A_1     C     0.2027     0.8452     0.2841
A_3     C     0.3654     0.6636     0.4986
A_1     C     0.5672     0.2623     0.4914
A_3     C     0.6397     0.4785     0.8846
A_2     C     0.978     0.6899     0.9764
A_0     C     0.1602     0.5976     0.11
A_3     C     0.8358     0.2293     0.7205
A_0     C     0.7664     0.2759     0.8555
A_2     C     0.4311     0.149     0.2217
A_2     C     0.861     0.1074     0.5658
A_0     C     0.1986     0.2917     0.8136
A_1     C     0.6589     0.2419     0.9656
A_0     C     0.7693     0.6172     0.9532
A_1     C     0.1673     0.0144     0.5883
A_0     C     0.2485     0.5617     0.3024
A_3     C     0.4191     0.8823     0.2539
A_0     C     0.2567     0.142     0.0126
A_3     C     0.6173     0.1936     0.8994
A_1     C     0.0638     0.9256     0.7896
A_0     C     0.9537     0.3885     0.4964
A_3     C     0.4163     0.6938     0.3512
A_0     C     0.5655     0.8674     0.7958
A_3     C     0.323     0.2437     0.4892
A_1     C     0.5895     0.4387     0.469
A_0     C     0.8678     0.0986     0.1515
A_2     C     0.1632     0.9644     0.896
A_0     C     0.1669     0.6979     0.4863
A_3     C     0.8377     0.4558     0.6601
A_1     C     0.3284     0.5102     0.63
A_3     C     0.4603     0.9698     0.8078
A_3     C     0.8914     0.2207     0.7778
A_2     C     0.9258     0.3116     0.0285
A_2     C     0.6823     0.71     0.0887
A_3     C     0.0658     0.9247     0.6894
A_0     C     0.4295     0.5566     0.9759
A_0     C     0.614     0.0649     0.4284
A_0     C     0.8643     0.5874     0.9885
A_1     C     0.2938     0.7658     0.7005
A_3     C     0.5046     0.1524     0.2158
A_1     C     0.4134     0.7309     0.0692
A_1     C     0.2935     0.4029     0.9114
A_2     C     0.9559     0.4676     0.5534
A_2     C     0.4047     0.1513     0.6491
A_1     C     0.1266     0.8954     0.6056
A_2     C     0.1461     0.4824     0.1963
A_2     C     0.5965     0.3423     0.0474
A_3     C     0.0996     0.6049     0.6742
A_2     C     0.9371     0.8653     0.0986
A_0     C     0.586     0.0857     0.6165
A_3     C     0.2815     0.5453     0.975
A_2     C     0.8254     0.7866     0.1007
A_0     C     0.3993     0.9194     0.5707
A_1     C     0.6469     0.8607     0.4939
A_3     C     0.1905     0.3548     0.8945
A_1     C     0.0201     0.0365     0.6821
A_3     C     0.406     0.2545     0.2857
A_2     C     0.4452     0.5396     0.9331
A_0     C     0.4649     0.947     0.0869
A_0     C     0.9477     0.2588     0.0072
A_1     C     0.1661     0.9229     0.8074
A_2     C     0.3137     0.9679     0.4663
A_1     C     0.2979     0.7363     0.9093
A_3     C     0.1922     0.6528     0.7965
A_3     C     0.5409     0.1714     0.6172
A_0     C     0.7844     0.8774     0.438
A_1     C     0.7429     0.5465     0.9397
A_3     C     0.3864     0.1861     0.8155
A_2     C     0.3792     0.2862     0.4109
A_3     C     0.1556     0.0534     0.6895
A_2     C     0.4932     0.1053     0.5119
A_1     C     0.1664     0.3737     0.0394
A_0     C     0.5498     0.4317     0.161
A_1     C     0.9252     0.2345     0.4102
A_2     C     0.8059     0.5994     0.2585
A_3     C     0.9092     0.4474     0.0481
A_1     C     0.3685     0.6325     0.9464
A_3     C     0.6103     0.5858     0.1895
A_2     C     0.556     0.5143     0.9482
A_2     C     0.394     0.4167     0.7312
A_2     C     0.6125     0.7716     0.0703
A_1     C     0.2294     0.0452     0.0244
A_0     C     0.1694     0.7914     0.5159
A_1     C     0.2074     0.4716     0.7354
A_1     C     0.6264     0.2492     0.9842
A_1     C     0.7512     0.542     0.3743
A_3     C     0.908     0.8163     0.0064
A_0     C     0.0443     0.3823     0.8839
A_2     C     0.5991     0.43     0.9667
A_2     C     0.716     0.4485     0.0412
A_1     C     0.7705     0.8437     0.549
A_0     C     0.4302     0.2264     0.6302
A_1     C     0.5144     0.891     0.5238
A_1     C     0.8599     0.7919     0.7912
A_3     C     0.5661     0.1223     0.1893
A_0     C     0.6222     0.712     0.8876
A_3     C     0.8843     0.1692     0.2752
A_3     C     0.2924     0.1382     0.3875
A_2     C     0.0487     0.0147     0.2447
A_1     C     0.8246     0.3539     0.5724
A_1     C     0.6731     0.7749     0.9996
A_1     C     0.5948     0.5178     0.4777
A_1     C     0.6485     0.5341     0.1378
A_2     C     0.5625     0.4051     0.5272
A_0     C     0.5673     0.3916     0.2653
A_0     C     0.8316     0.8671     0.1432
A_1     C     0.0392     0.6994     0.3095
A_2     C     0.1671     0.8731     0.5473
A_0     C     0.9248     0.6663     0.1761
A_3     C     0.373     0.3386     0.4562
