MAT-35

loop_
_symmetry_equiv_pos_as_xyz
  x,y,z
_cell_length_a          30.1573
_cell_length_b          33.1466
_cell_length_c          17.1117
_cell_angle_alpha       90.0000
_cell_angle_beta        90.0000
_cell_angle_gamma       90.0000
loop_
_atom_site_label
_atom_site_type_symbol
_atom_site_fract_x
_atom_site_fract_y
_atom_site_fract_z
A_3     C     0.8463     0.0721     0.2927
A_1     C     0.641     0.5743     0.1435
A_3     C     0.4542     0.9535     0.1434
A_1     C     0.9743     0.3264     0.0143
A_0     C     0.1214     0.0774     0.9759
A_3     C     0.6647     0.4657     0.2512
A_0     C     0.907     0.2658     0.2018
A_1     C     0.5867     0.1845     0.1445
A_2     C     0.013     0.5494     0.0463
A_1     C     0.8194     0.1833     0.878
A_2     C     0.7145     0.4182     0.7841
A_2     C     0.8498     0.6677     0.4531
A_0     C     0.2321     0.7574     0.9379
A_1     C     0.183     0.4238     0.6646
A_3     C     0.8163     0.0472     0.8278
A_3     C     0.9866     0.9191     0.8397
A_1     C     0.9919     0.3588     0.2266
A_0     C     0.066     0.7595     0.4058
A_0     C     0.5356     0.8082     0.5279
A_1     C     0.9923     0.1058     0.7099
A_2     C     0.8609     0.5113     0.2765
A_1     C     0.2261     0.2995     0.3898
A_0     C     0.7092     0.8754     0.7939
A_3     C     0.2038     0.8081     0.1105
A_0     C     0.4794     0.9827     0.7263
A_1     C     0.4876     0.7681     0.1463
A_1     C     0.9316     0.4411     0.1767
A_0     C     0.5988     0.0871     0.147
A_1     C     0.6252     0.6787     0.7033
A_3     C     0.6628     0.5458     0.246
A_1     C     0.6055     0.4589     0.5151
A_0     C     0.158     0.5807     0.977
A_0     C     0.4746     0.4239     0.458
A_0     C     0.9558     0.4349     0.2474
A_1     C     0.0234     0.0503     0.9089
A_1     C     0.6392     0.6818     0.0706
A_3     C     0.7402     0.392     0.6603
A_1     C     0.8428     0.9206     0.8809
A_2     C     0.0628     0.4775     0.0639
A_0     C     0.6784     0.145     0.4424
A_2     C     0.9628     0.9121     0.5012
A_0     C     0.4675     0.5702     0.1961
A_1     C     0.3586     0.9581     0.9315
A_3     C     0.036     0.6448     0.4179
A_1     C     0.9472     0.4747     0.7386
A_2     C     0.3474     0.7797     0.9257
A_0     C     0.0431     0.7096     0.2658
A_1     C     0.3258     0.8118     0.3009
A_0     C     0.8215     0.169     0.2101
A_2     C     0.9947     0.0108     0.1464
A_1     C     0.7773     0.7441     0.294
A_3     C     0.29     0.5323     0.0514
A_3     C     0.1009     0.4926     0.5662
A_2     C     0.182     0.9591     0.7482
A_1     C     0.6117     0.8091     0.5566
A_1     C     0.8545     0.7137     0.9804
A_1     C     0.9461     0.4732     0.6918
A_0     C     0.4959     0.3252     0.1352
A_2     C     0.8537     0.4853     0.9735
A_1     C     0.9407     0.9977     0.5403
A_2     C     0.6085     0.1301     0.4358
A_1     C     0.0045     0.6136     0.6294
A_3     C     0.6932     0.4251     0.0527
A_1     C     0.0344     0.2844     0.9859
A_0     C     0.2414     0.621     0.1305
A_0     C     0.8816     0.4817     0.1003
A_3     C     0.399     0.9497     0.4708
A_2     C     0.117     0.207     0.97
A_2     C     0.5136     0.1861     0.789
A_3     C     0.1331     0.6453     0.4208
A_0     C     0.9761     0.6048     0.7222
A_2     C     0.4024     0.9723     0.0989
A_2     C     0.5801     0.937     0.3597
A_0     C     0.674     0.1626     0.3685
A_1     C     0.862     0.2779     0.1034
A_0     C     0.0409     0.4885     0.9134
A_2     C     0.38     0.598     0.7651
A_2     C     0.1575     0.4152     0.698
A_2     C     0.919     0.3201     0.9531
A_2     C     0.7905     0.6546     0.3876
A_2     C     0.4307     0.1267     0.9522
A_0     C     0.2584     0.6251     0.029
A_3     C     0.2737     0.3751     0.5383
A_3     C     0.4782     0.6178     0.8037
A_1     C     0.3312     0.3152     0.5388
A_3     C     0.9621     0.1952     0.9148
A_3     C     0.2362     0.0951     0.8844
A_3     C     0.7951     0.1266     0.4324
A_1     C     0.05     0.8885     0.9974
A_1     C     0.2288     0.8581     0.2604
A_0     C     0.7066     0.7179     0.8969
A_1     C     0.9013     0.6414     0.5446
A_1     C     0.1205     0.5075     0.3246
A_2     C     0.1431     0.9494     0.5201
A_1     C     0.9496     0.501     0.9636
A_2     C     0.3193     0.6646     0.021
A_1     C     0.0939     0.7706     0.3216
A_0     C     0.2967     0.6536     0.5348
A_0     C     0.8143     0.4853     0.4055
A_1     C     0.1211     0.6889     0.7485
A_1     C     0.3529     0.5025     0.6664
A_2     C     0.0675     0.4375     0.5898
A_3     C     0.3599     0.6697     0.3011
A_0     C     0.8424     0.8617     0.3531
A_0     C     0.4278     0.7254     0.0979
A_3     C     0.909     0.9252     0.0869
A_3     C     0.3315     0.3495     0.4108
A_0     C     0.6071     0.4071     0.8813
A_1     C     0.1148     0.1923     0.6143
A_1     C     0.8359     0.6231     0.1371
A_1     C     0.6832     0.7835     0.5381
A_1     C     0.5683     0.6203     0.4825
A_3     C     0.5225     0.2646     0.1786
A_2     C     0.5068     0.9587     0.6039
A_1     C     0.1409     0.942     0.8572
A_2     C     0.6321     0.0618     0.252
A_2     C     0.5788     0.9559     0.9446
A_1     C     0.8521     0.401     0.8655
A_0     C     0.5935     0.4975     0.1522
A_2     C     0.9486     0.1521     0.4402
A_3     C     0.2035     0.8928     0.8031
A_2     C     0.6966     0.3591     0.3695
A_3     C     0.7496     0.725     0.4488
A_1     C     0.6975     0.0013     0.1242
A_1     C     0.7173     0.3172     0.5164
A_2     C     0.8908     0.0588     0.7982
A_3     C     0.3885     0.3151     0.2482
A_3     C     0.5014     0.0239     0.1731
A_0     C     0.3921     0.2632     0.7499
A_3     C     0.7939     0.7287     0.5404
A_1     C     0.3551     0.537     0.5507
A_2     C     0.1234     0.2317     0.2933
A_0     C     0.6235     0.912     0.4201
A_3     C     0.8058     0.9532     0.8028
A_0     C     0.1396     0.2399     0.5859
A_3     C     0.3109     0.3529     0.8467
A_2     C     0.9108     0.9135     0.6448
A_2     C     0.0887     0.5428     0.6561
A_1     C     0.9611     0.0583     0.1763
A_2     C     0.0314     0.7124     0.1938
A_2     C     0.1501     0.6245     0.1809
A_2     C     0.4044     0.7557     0.4653
A_0     C     0.3525     0.1678     0.7684
A_3     C     0.9091     0.4643     0.6469
A_0     C     0.8918     0.6019     0.6701
A_1     C     0.0869     0.017     0.7681
A_3     C     0.235     0.0298     0.5135
A_0     C     0.1069     0.6933     0.6072
A_2     C     0.8136     0.7864     0.7236
A_3     C     0.2782     0.6091     0.3151
A_1     C     0.0334     0.3617     0.498
A_3     C     0.9382     0.4492     0.3873
A_0     C     0.7082     0.6577     0.4394
A_0     C     0.5704     0.4228     0.005
A_2     C     0.6914     0.7382     0.0874
A_2     C     0.4588     0.3906     0.0314
A_0     C     0.2044     0.3562     0.8295
A_3     C     0.9541     0.3006     0.1382
A_2     C     0.9141     0.7038     0.0951
A_2     C     0.2976     0.0458     0.1259
A_1     C     0.812     0.6012     0.3297
A_3     C     0.1594     0.9011     0.4548
A_3     C     0.3972     0.3633     0.4786
A_2     C     0.8791     0.1076     0.9093
A_2     C     0.4746     0.4493     0.9011
A_1     C     0.7031     0.7267     0.1666
A_3     C     0.3426     0.7033     0.3189
A_3     C     0.8164     0.7319     0.957
A_3     C     0.5204     0.8086     0.5697
A_3     C     0.8409     0.3757     0.3452
A_0     C     0.8347     0.5202     0.4802
A_3     C     0.7138     0.1801     0.8883
A_3     C     0.471     0.7527     0.1993
A_3     C     0.9005     0.9324     0.0084
A_0     C     0.7142     0.7623     0.8058
A_0     C     0.7946     0.6039     0.801
A_3     C     0.5597     0.0672     0.1796
A_1     C     0.6927     0.922     0.4766
A_0     C     0.8426     0.3672     0.937
A_0     C     0.9075     0.4129     0.8015
A_3     C     0.9467     0.6307     0.4551
A_3     C     0.8609     0.4641     0.2607
A_2     C     0.541     0.855     0.6605
A_1     C     0.4975     0.765     0.419
A_1     C     0.7345     0.763     0.8867
A_1     C     0.4588     0.7344     0.2834
A_0     C     0.1182     0.1498     0.9383
A_0     C     0.6974     0.1267     0.449
A_0     C     0.7247     0.9319     0.0686
A_1     C     0.7822     0.0611     0.985
A_0     C     0.0993     0.7424     0.4674
A_3     C     0.301     0.5772     0.5934
A_2     C     0.5577     0.5814     0.6646
A_3     C     0.5409     0.6316     0.4007
A_0     C     0.3489     0.2436     0.6329
A_1     C     0.0564     0.6968     0.4984
A_3     C     0.0662     0.8587     0.3672
A_1     C     0.4094     0.0901     0.697
A_0     C     0.4737     0.5527     0.6771
A_1     C     0.2318     0.298     0.1208
A_2     C     0.5563     0.2272     0.3736
A_0     C     0.8094     0.6366     0.1812
A_2     C     0.6595     0.172     0.1088
A_3     C     0.0458     0.134     0.1277
A_3     C     0.4885     0.0792     0.0156
A_0     C     0.2751     0.4986     0.226
A_3     C     0.2719     0.7675     0.7008
A_1     C     0.3935     0.3494     0.2889
A_3     C     0.0074     0.141     0.3272
A_3     C     0.9936     0.5855     0.5211
A_0     C     0.1881     0.587     0.7747
A_1     C     0.0879     0.7439     0.0449
A_3     C     0.4803     0.1611     0.0074
A_3     C     0.9088     0.8601     0.4456
A_1     C     0.7883     0.8342     0.7074
A_2     C     0.2121     0.184     0.8425
A_1     C     0.1414     0.687     0.2662
A_1     C     0.6137     0.6501     0.5325
A_2     C     0.5849     0.0171     0.4024
A_0     C     0.1766     0.4227     0.1744
A_1     C     0.3525     0.8735     0.7969
A_2     C     0.1191     0.9623     0.1507
A_0     C     0.6333     0.0774     0.7274
A_1     C     0.312     0.9627     0.5862
A_2     C     0.9019     0.3602     0.0234
A_1     C     0.2626     0.6283     0.5062
A_2     C     0.0477     0.2586     0.2335
A_2     C     0.5767     0.7713     0.0985
A_0     C     0.66     0.3074     0.1942
A_0     C     0.429     0.6888     0.3295
A_2     C     0.3438     0.8456     0.5797
A_1     C     0.5912     0.8242     0.0812
A_1     C     0.0376     0.7875     0.8157
A_3     C     0.5001     0.653     0.0279
A_1     C     0.4392     0.1268     0.2134
A_2     C     0.7804     0.4765     0.291
A_2     C     0.1718     0.3611     0.213
A_0     C     0.7121     0.554     0.8878
A_2     C     0.9827     0.2999     0.0703
A_3     C     0.5688     0.6384     0.0942
A_3     C     0.9274     0.2147     0.2872
A_0     C     0.3785     0.9267     0.4235
A_1     C     0.9434     0.3965     0.6594
A_0     C     0.0736     0.0115     0.0491
A_2     C     0.703     0.7842     0.5914
A_0     C     0.7341     0.1871     0.5069
A_0     C     0.0908     0.4283     0.4474
A_1     C     0.2748     0.9289     0.606
A_1     C     0.5337     0.8548     0.5292
A_1     C     0.6795     0.7239     0.4588
A_2     C     0.4012     0.1571     0.1986
A_1     C     0.6932     0.3558     0.2146
A_3     C     0.3606     0.0813     0.6652
A_0     C     0.5682     0.1682     0.4064
A_1     C     0.8204     0.3796     0.0359
A_2     C     0.1058     0.6682     0.3628
A_0     C     0.334     0.1245     0.5772
A_0     C     0.3013     0.43     0.6475
A_1     C     0.7734     0.3185     0.5246
A_3     C     0.5252     0.6308     0.4152
A_2     C     0.5641     0.5383     0.9144
A_1     C     0.1736     0.3175     0.2669
A_1     C     0.5508     0.344     0.1799
A_0     C     0.1081     0.6866     0.4262
A_0     C     0.4002     0.4517     0.7912
A_1     C     0.4062     0.0337     0.4598
A_0     C     0.2996     0.6593     0.5255
A_3     C     0.8191     0.4509     0.3129
A_2     C     0.6442     0.4124     0.0757
A_0     C     0.8508     0.1721     0.1016
A_1     C     0.5032     0.7111     0.4702
A_2     C     0.0354     0.3453     0.8613
A_2     C     0.0299     0.6546     0.5821
A_0     C     0.9561     0.3273     0.8476
A_1     C     0.4782     0.2199     0.4695
A_1     C     0.2957     0.7939     0.2089
A_1     C     0.3326     0.9933     0.5706
A_2     C     0.9538     0.0438     0.5549
A_1     C     0.7644     0.7858     0.0854
A_0     C     0.4269     0.5227     0.624
A_0     C     0.6409     0.188     0.5169
A_2     C     0.9345     0.399     0.732
A_1     C     0.1395     0.9828     0.4677
A_3     C     0.0336     0.0017     0.5238
A_3     C     0.7733     0.0163     0.8707
A_3     C     0.9519     0.9788     0.793
A_3     C     0.6009     0.8962     0.9006
A_2     C     0.4515     0.7623     0.1111
A_0     C     0.205     0.5621     0.9495
A_2     C     0.9443     0.3206     0.7824
A_1     C     0.5663     0.5301     0.6006
A_0     C     0.5684     0.6954     0.9153
A_2     C     0.4783     0.0389     0.9844
A_0     C     0.1182     0.9645     0.0874
A_2     C     0.5727     0.4584     0.5565
A_1     C     0.951     0.1225     0.9538
A_2     C     0.5533     0.9041     0.3803
A_1     C     0.9412     0.4037     0.8613
A_1     C     0.4077     0.8904     0.2509
A_1     C     0.4683     0.0859     0.0098
A_2     C     0.659     0.7544     0.0365
A_2     C     0.0244     0.5431     0.8884
A_2     C     0.4152     0.1064     0.5196
A_3     C     0.433     0.5875     0.1766
A_0     C     0.438     0.4087     0.0453
A_0     C     0.5477     0.0688     0.8653
A_2     C     0.3769     0.6715     0.0737
A_3     C     0.8677     0.8803     0.6718
A_3     C     0.4426     0.8975     0.9557
A_1     C     0.8393     0.618     0.3735
A_1     C     0.6428     0.9115     0.7805
A_3     C     0.0934     0.7862     0.6903
A_3     C     0.8647     0.7397     0.4165
A_1     C     0.396     0.2191     0.0409
A_3     C     0.8018     0.4939     0.4841
A_2     C     0.7495     0.896     0.0164
A_0     C     0.7661     0.0809     0.8684
A_0     C     0.3967     0.4735     0.1027
A_1     C     0.204     0.1683     0.0219
A_0     C     0.3808     0.2141     0.7345
A_0     C     0.5045     0.8378     0.2388
A_1     C     0.9518     0.1528     0.0093
A_3     C     0.9754     0.003     0.4858
A_0     C     0.2557     0.1474     0.9389
A_1     C     0.6641     0.2061     0.9272
A_1     C     0.0118     0.1348     0.1385
A_2     C     0.9584     0.966     0.0946
A_1     C     0.1396     0.8096     0.4619
A_1     C     0.9154     0.8236     0.622
A_0     C     0.4793     0.4966     0.8571
A_3     C     0.3113     0.8653     0.4342
A_0     C     0.198     0.2505     0.828
A_2     C     0.1331     0.5952     0.5919
A_1     C     0.5001     0.5118     0.6505
A_2     C     0.8608     0.6793     0.0166
A_2     C     0.2413     0.9208     0.0171
A_0     C     0.266     0.5154     0.9637
A_0     C     0.1144     0.513     0.0927
A_0     C     0.3486     0.097     0.3069
A_3     C     0.9048     0.7288     0.5889
A_1     C     0.2576     0.9349     0.3581
A_2     C     0.5136     0.953     0.6425
A_2     C     0.4863     0.9218     0.8393
A_3     C     0.8617     0.267     0.5495
A_3     C     0.7543     0.3977     0.2806
A_2     C     0.7835     0.495     0.4066
A_2     C     0.0198     0.8405     0.1191
A_3     C     0.2184     0.2985     0.0983
A_3     C     0.4981     0.7537     0.735
A_2     C     0.2392     0.4752     0.9932
A_1     C     0.652     0.0134     0.6609
A_3     C     0.2016     0.0196     0.655
A_3     C     0.9128     0.115     0.6999
A_2     C     0.1098     0.1987     0.3975
A_2     C     0.9738     0.1991     0.4703
A_2     C     0.4642     0.3159     0.4766
A_1     C     0.7335     0.782     0.8771
A_2     C     0.1436     0.8877     0.0218
A_0     C     0.1659     0.8775     0.5683
A_1     C     0.7609     0.6476     0.4119
A_1     C     0.4481     0.8012     0.2881
A_3     C     0.5173     0.1109     0.6579
A_3     C     0.1323     0.8543     0.6998
A_0     C     0.4378     0.7577     0.9946
A_3     C     0.8049     0.2621     0.5864
A_0     C     0.3213     0.2304     0.3425
A_3     C     0.1621     0.8203     0.6368
A_2     C     0.1131     0.4827     0.7725
A_0     C     0.2579     0.8378     0.289
A_0     C     0.9462     0.4007     0.2023
A_3     C     0.5925     0.4653     0.7027
A_2     C     0.2765     0.9126     0.1635
A_2     C     0.747     0.1821     0.3094
A_1     C     0.6165     0.2649     0.5275
A_3     C     0.9081     0.5115     0.3794
A_3     C     0.4508     0.8674     0.2909
A_2     C     0.7107     0.8715     0.7987
A_0     C     0.6974     0.0776     0.8794
A_1     C     0.4558     0.0247     0.011
A_0     C     0.825     0.4309     0.4517
A_3     C     0.6582     0.5277     0.0648
A_2     C     0.7845     0.9313     0.8253
A_2     C     0.0958     0.7146     0.3174
A_3     C     0.8702     0.7716     0.68
A_3     C     0.8007     0.7457     0.5351
A_0     C     0.5033     0.5521     0.1616
A_1     C     0.0305     0.8753     0.7035
A_0     C     0.6294     0.3895     0.572
A_0     C     0.6943     0.7876     0.5818
A_2     C     0.5253     0.7191     0.8383
A_2     C     0.2392     0.7324     0.6839
A_1     C     0.0101     0.4745     0.7123
A_2     C     0.5165     0.581     0.4688
A_1     C     0.5603     0.1391     0.7639
A_1     C     0.4624     0.9135     0.589
A_1     C     0.6743     0.3008     0.0622
A_1     C     0.396     0.0596     0.4309
A_1     C     0.464     0.0271     0.0757
A_1     C     0.1118     0.9403     0.5897
A_0     C     0.5828     0.4063     0.8497
A_2     C     0.1999     0.7752     0.8719
A_0     C     0.7658     0.9858     0.2533
A_2     C     0.3774     0.3443     0.4078
A_3     C     0.2771     0.3131     0.6064
A_3     C     0.7282     0.7391     0.292
A_3     C     0.9893     0.305     0.7795
A_1     C     0.0072     0.4812     0.386
A_0     C     0.6178     0.451     0.9875
A_3     C     0.9859     0.6133     0.993
A_1     C     0.3649     0.5058     0.0442
A_1     C     0.1741     0.6662     0.7031
A_3     C     0.0824     0.8075     0.633
A_0     C     0.738     0.1848     0.4628
A_3     C     0.9165     0.4798     0.6303
A_3     C     0.9067     0.6245     0.1603
A_3     C     0.4759     0.1361     0.2161
A_1     C     0.5683     0.7361     0.5703
A_3     C     0.8797     0.8532     0.7199
A_1     C     0.6645     0.5568     0.5176
A_0     C     0.2978     0.8144     0.8976
A_0     C     0.3364     0.1657     0.4082
A_0     C     0.5724     0.111     0.9193
A_0     C     0.1121     0.1095     0.7297
A_1     C     0.4759     0.1267     0.2484
A_1     C     0.3176     0.7267     0.3776
A_0     C     0.6709     0.2452     0.9685
A_1     C     0.6261     0.4975     0.2206
A_0     C     0.8304     0.6839     0.8069
A_3     C     0.7178     0.6267     0.534
A_0     C     0.6025     0.8049     0.5374
A_1     C     0.5978     0.0251     0.5804
A_3     C     0.7613     0.2747     0.6006
A_3     C     0.4435     0.5278     0.5283
A_3     C     0.1117     0.9246     0.6379
A_3     C     0.7017     0.1171     0.3955
A_3     C     0.5463     0.3199     0.1975
A_3     C     0.4725     0.4184     0.8
A_0     C     0.0798     0.5105     0.2497
A_2     C     0.5842     0.4736     0.3965
A_0     C     0.1492     0.6935     0.1297
A_0     C     0.2812     0.3013     0.5139
A_1     C     0.2132     0.5827     0.2389
A_3     C     0.9414     0.7728     0.2245
A_2     C     0.5539     0.0083     0.2568
A_1     C     0.5228     0.9924     0.6349
A_0     C     0.3212     0.7901     0.0952
A_1     C     0.4051     0.9837     0.2381
A_1     C     0.8346     0.745     0.4402
A_3     C     0.1138     0.1309     0.1963
A_2     C     0.5842     0.5494     0.8822
A_3     C     0.323     0.1661     0.3766
A_3     C     0.6888     0.9775     0.1746
A_1     C     0.0753     0.2795     0.5505
A_1     C     0.8135     0.5362     0.8681
A_1     C     0.2092     0.3302     0.6313
A_3     C     0.1462     0.3962     0.4682
A_3     C     0.0681     0.6188     0.989
A_3     C     0.246     0.1435     0.9124
A_1     C     0.934     0.4693     0.6834
A_0     C     0.406     0.7611     0.959
A_0     C     0.7503     0.927     0.0125
A_0     C     0.9825     0.4815     0.0994
A_1     C     0.8671     0.2291     0.4431
A_2     C     0.3174     0.8196     0.5828
A_3     C     0.5694     0.4007     0.4372
A_2     C     0.5422     0.9048     0.225
A_0     C     0.8466     0.1074     0.0583
A_1     C     0.5643     0.489     0.2834
A_2     C     0.388     0.0915     0.4145
A_0     C     0.9573     0.1657     0.2915
A_3     C     0.7686     0.0484     0.4416
A_3     C     0.0136     0.5881     0.3314
A_0     C     0.7337     0.7003     0.4551
A_2     C     0.3949     0.051     0.5932
A_2     C     0.6301     0.9893     0.6259
A_1     C     0.5409     0.5004     0.9826
A_0     C     0.1654     0.8094     0.8594
A_2     C     0.3221     0.8469     0.3303
A_2     C     0.708     0.2943     0.44
A_0     C     0.6717     0.6225     0.1769
A_1     C     0.3464     0.2568     0.8204
A_0     C     0.0947     0.9138     0.815
A_0     C     0.0786     0.8737     0.2316
A_0     C     0.7277     0.8335     0.7122
A_2     C     0.8576     0.8809     0.0289
A_2     C     0.1468     0.0313     0.024
A_2     C     0.6307     0.9849     0.942
A_2     C     0.121     0.5386     0.1436
A_1     C     0.3568     0.4781     0.0174
A_0     C     0.2762     0.1687     0.7993
A_0     C     0.3305     0.6225     0.9907
A_1     C     0.1593     0.6768     0.6608
A_1     C     0.9037     0.8142     0.8371
A_3     C     0.4392     0.5058     0.5069
A_3     C     0.0298     0.5456     0.6157
A_3     C     0.3449     0.3027     0.989
A_2     C     0.0392     0.7687     0.1507
A_3     C     0.4578     0.565     0.7841
A_2     C     0.1258     0.4156     0.1544
A_1     C     0.9568     0.8482     0.0223
A_3     C     0.6182     0.3226     0.625
A_1     C     0.1093     0.9715     0.4077
A_0     C     0.9216     0.035     0.3879
A_0     C     0.1712     0.6911     0.5693
A_1     C     0.6506     0.6133     0.1218
A_3     C     0.6219     0.6835     0.2288
A_2     C     0.9821     0.5582     0.3482
A_0     C     0.2193     0.6256     0.3718
A_1     C     0.1272     0.5589     0.7574
A_0     C     0.0683     0.5475     0.768
A_2     C     0.7225     0.469     0.2233
A_3     C     0.4966     0.8512     0.9932
A_2     C     0.7989     0.0233     0.9395
A_1     C     0.6879     0.9856     0.0416
A_0     C     0.1523     0.8628     0.126
A_3     C     0.5012     0.3908     0.4014
A_1     C     0.8904     0.429     0.5581
A_0     C     0.5866     0.5591     0.2771
A_2     C     0.3375     0.7154     0.1889
A_1     C     0.2318     0.8558     0.355
A_2     C     0.6224     0.767     0.1436
A_0     C     0.2909     0.6679     0.1246
A_0     C     0.6769     0.1794     0.8492
A_2     C     0.1568     0.5534     0.5643
A_3     C     0.7155     0.0989     0.4157
A_0     C     0.9745     0.0824     0.8634
A_0     C     0.1752     0.1934     0.7454
A_2     C     0.6769     0.4312     0.7027
A_3     C     0.7244     0.593     0.5154
A_0     C     0.5482     0.4929     0.5967
A_2     C     0.1171     0.2348     0.9091
A_0     C     0.5184     0.4459     0.9561
A_3     C     0.2268     0.9354     0.0098
A_1     C     0.4154     0.0697     0.3416
A_2     C     0.8017     0.4158     0.0825
A_2     C     0.1902     0.3073     0.5331
A_3     C     0.9124     0.4699     0.3533
A_2     C     0.2943     0.838     0.6171
A_3     C     0.4928     0.2979     0.9185
A_0     C     0.5248     0.4666     0.3245
A_0     C     0.6169     0.7722     0.7709
A_3     C     0.8471     0.7571     0.0556
A_1     C     0.2949     0.98     0.6279
A_2     C     0.0328     0.5293     0.8779
A_0     C     0.6358     0.3777     0.674
A_3     C     0.7747     0.4079     0.6306
A_1     C     0.7764     0.8046     0.943
A_3     C     0.0377     0.3992     0.603
A_1     C     0.012     0.6062     0.0145
A_3     C     0.2298     0.9439     0.7118
A_3     C     0.8147     0.9957     0.3361
A_2     C     0.2456     0.3454     0.3171
A_3     C     0.7927     0.9843     0.8737
A_0     C     0.3751     0.5961     0.1534
A_1     C     0.1184     0.7746     0.7029
A_2     C     0.6008     0.9992     0.347
A_2     C     0.7655     0.4753     0.4137
A_2     C     0.4795     0.1076     0.7131
A_0     C     0.8184     0.3404     0.2908
A_2     C     0.6261     0.4616     0.0132
A_2     C     0.9445     0.6852     0.3616
A_3     C     0.7197     0.8944     0.5884
A_3     C     0.2657     0.0111     0.577
A_0     C     0.5299     0.8157     0.2562
A_0     C     0.8349     0.7885     0.9256
A_2     C     0.5229     0.6362     0.2852
A_3     C     0.0248     0.8608     0.593
A_3     C     0.3656     0.1949     0.6714
A_0     C     0.3967     0.8569     0.5094
A_0     C     0.1081     0.0319     0.9554
A_0     C     0.6503     0.9739     0.2856
A_2     C     0.9615     0.4799     0.0529
A_1     C     0.8189     0.7984     0.7833
A_1     C     0.1298     0.1196     0.5467
A_3     C     0.6158     0.4933     0.4739
A_3     C     0.7909     0.2753     0.456
A_0     C     0.7818     0.3775     0.8832
A_3     C     0.4756     0.5931     0.396
A_0     C     0.388     0.3448     0.1673
A_2     C     0.3246     0.3211     0.6265
A_2     C     0.8419     0.329     0.9223
A_3     C     0.8912     0.4401     0.6117
A_3     C     0.1687     0.5191     0.9684
A_3     C     0.4484     0.4782     0.9708
A_1     C     0.157     0.1014     0.2614
A_3     C     0.9548     0.896     0.4413
A_3     C     0.9114     0.705     0.8632
A_1     C     0.278     0.8787     0.3132
A_2     C     0.5514     0.412     0.4627
A_0     C     0.1456     0.1966     0.6588
A_2     C     0.8903     0.5911     0.5223
A_1     C     0.5855     0.6904     0.8075
A_0     C     0.0259     0.5328     0.0694
A_3     C     0.4248     0.3932     0.5832
A_3     C     0.7979     0.9833     0.7519
A_1     C     0.2015     0.8202     0.5547
A_1     C     0.4273     0.0007     0.7003
A_2     C     0.0287     0.4795     0.223
A_1     C     0.7087     0.0035     0.1386
A_1     C     0.1272     0.1911     0.5256
A_0     C     0.8935     0.5163     0.3164
A_0     C     0.5274     0.1884     0.3732
A_2     C     0.4235     0.9731     0.664
A_2     C     0.0653     0.1199     0.766
A_2     C     0.0885     0.5414     0.0786
A_1     C     0.6083     0.8783     0.2957
A_1     C     0.9389     0.7106     0.7911
A_1     C     0.1169     0.8108     0.8737
A_1     C     0.3999     0.2923     0.1835
A_1     C     0.5925     0.8281     0.7868
A_3     C     0.501     0.0946     0.6283
A_3     C     0.9357     0.2256     0.1576
A_0     C     0.1756     0.3824     0.1977
A_2     C     0.4719     0.8676     0.1313
A_2     C     0.7918     0.2904     0.4996
A_1     C     0.6073     0.9897     0.6025
A_0     C     0.7315     0.1004     0.4848
A_2     C     0.0863     0.8941     0.5193
A_2     C     0.9134     0.92     0.4864
A_3     C     0.169     0.8415     0.0204
A_1     C     0.3771     0.0118     0.9015
A_2     C     0.3767     0.4481     0.1619
A_3     C     0.4416     0.1813     0.8621
A_1     C     0.0182     0.4068     0.7873
A_0     C     0.9251     0.4408     0.4244
A_3     C     0.5574     0.8159     0.4191
A_1     C     0.5845     0.8096     0.2936
A_3     C     0.1729     0.7233     0.5249
A_1     C     0.9108     0.4542     0.2914
A_0     C     0.2332     0.9263     0.5109
A_1     C     0.8549     0.7608     0.8826
A_0     C     0.065     0.9303     0.0814
A_2     C     0.3441     0.9444     0.2039
A_3     C     0.5142     0.6908     0.7312
A_1     C     0.7534     0.9836     0.5623
A_2     C     0.5184     0.4931     0.389
A_1     C     0.8184     0.0653     0.6358
A_1     C     0.8733     0.4763     0.3843
A_0     C     0.0314     0.5096     0.8816
A_0     C     0.6774     0.296     0.6743
A_2     C     0.16     0.0955     0.2247
A_2     C     0.2904     0.799     0.0866
A_1     C     0.7972     0.2401     0.0049
A_1     C     0.4373     0.2346     0.5917
A_0     C     0.4408     0.5337     0.2734
A_3     C     0.0592     0.4861     0.7239
A_0     C     0.4729     0.8     0.456
A_1     C     0.4436     0.3922     0.8311
A_1     C     0.2011     0.7329     0.6294
A_0     C     0.4853     0.9834     0.9129
A_0     C     0.0648     0.2941     0.2082
A_2     C     0.3735     0.2182     0.7502
A_3     C     0.1695     0.854     0.7395
A_2     C     0.6439     0.2063     0.9581
A_0     C     0.834     0.7602     0.5687
A_3     C     0.1261     0.8507     0.9373
A_0     C     0.7304     0.796     0.5108
A_3     C     0.226     0.3449     0.5193
A_3     C     0.2276     0.2055     0.5926
A_0     C     0.5847     0.6373     0.2319
A_3     C     0.6481     0.7125     0.5179
A_2     C     0.0837     0.6269     0.763
A_1     C     0.7903     0.854     0.9957
A_1     C     0.0242     0.2369     0.229
A_1     C     0.6196     0.4493     0.3058
A_0     C     0.9542     0.4842     0.5538
A_1     C     0.2997     0.883     0.7528
A_3     C     0.542     0.2907     0.3343
A_3     C     0.8457     0.1873     0.4381
A_2     C     0.1947     0.3509     0.7921
A_2     C     0.1657     0.5134     0.2518
A_3     C     0.4186     0.5451     0.1115
A_2     C     0.5581     0.3604     0.8052
A_1     C     0.2977     0.3599     0.9863
A_2     C     0.0198     0.0024     0.436
A_0     C     0.8053     0.2197     0.365
A_2     C     0.4518     0.014     0.5597
A_1     C     0.0589     0.547     0.0673
A_0     C     0.0757     0.7014     0.9578
A_3     C     0.2761     0.8527     0.6292
A_3     C     0.1975     0.8175     0.6962
A_0     C     0.1512     0.8074     0.6185
A_1     C     0.4968     0.5816     0.7148
A_3     C     0.5632     0.5935     0.3634
A_0     C     0.2134     0.5655     0.5249
A_2     C     0.9278     0.5155     0.5204
A_0     C     0.3287     0.9585     0.496
A_1     C     0.3898     0.2287     0.2761
A_3     C     0.7976     0.2665     0.9926
A_1     C     0.0131     0.6089     0.0472
A_2     C     0.5325     0.6554     0.9991
A_3     C     0.3843     0.6716     0.8532
A_2     C     0.4214     0.9454     0.6663
A_0     C     0.1058     0.0452     0.5353
A_3     C     0.2899     0.6668     0.4402
A_0     C     0.7885     0.9163     0.1476
A_0     C     0.7718     0.6682     0.182
A_1     C     0.3996     0.2205     0.055
A_0     C     0.3134     0.513     0.7437
A_2     C     0.9469     0.6421     0.1453
A_2     C     0.9451     0.0622     0.7645
A_2     C     0.2915     0.9236     0.0165
A_1     C     0.7366     0.4595     0.2557
A_2     C     0.3389     0.131     0.7989
A_0     C     0.1975     0.6395     0.3103
A_0     C     0.7207     0.5857     0.0081
A_2     C     0.1482     0.9247     0.0169
A_3     C     0.1405     0.0573     0.4144
A_1     C     0.7545     0.1466     0.0084
A_0     C     0.0835     0.1802     0.5551
A_0     C     0.6785     0.5794     0.1427
A_0     C     0.0228     0.1381     0.8106
A_1     C     0.3925     0.1323     0.2883
A_3     C     0.7214     0.2743     0.6796
A_1     C     0.6119     0.7407     0.2081
A_2     C     0.3213     0.7755     0.5959
A_2     C     0.7604     0.5377     0.8199
A_0     C     0.8619     0.4803     0.9786
A_3     C     0.7567     0.7512     0.7572
A_0     C     0.6479     0.2515     0.6429
A_1     C     0.7169     0.72     0.7604
A_2     C     0.3097     0.36     0.3538
A_1     C     0.2182     0.376     0.4438
A_3     C     0.6898     0.2644     0.3918
A_3     C     0.2454     0.2716     0.5122
A_3     C     0.4942     0.0986     0.3964
A_1     C     0.632     0.4422     0.1586
A_2     C     0.328     0.3737     0.8589
A_1     C     0.3651     0.9275     0.4234
A_1     C     0.1892     0.1839     0.7553
A_2     C     0.058     0.8018     0.5696
A_2     C     0.8401     0.5574     0.4678
A_3     C     0.2311     0.4215     0.9446
A_2     C     0.888     0.3147     0.902
A_1     C     0.1708     0.9415     0.7325
A_0     C     0.9593     0.7412     0.4012
A_2     C     0.7934     0.3994     0.5934
A_3     C     0.8627     0.7807     0.8122
A_0     C     0.8442     0.5625     0.4995
A_1     C     0.1295     0.887     0.5019
A_0     C     0.4177     0.5917     0.8527
A_3     C     0.7835     0.5146     0.847
A_2     C     0.7395     0.4573     0.3765
A_2     C     0.4713     0.0568     0.9622
A_2     C     0.4574     0.1614     0.9688
A_3     C     0.2722     0.4851     0.6162
A_0     C     0.0996     0.6877     0.8944
A_1     C     0.3728     0.2099     0.8392
A_2     C     0.7591     0.9408     0.0137
A_3     C     0.6527     0.1331     0.024
A_3     C     0.3484     0.4167     0.5141
A_1     C     0.2346     0.3318     0.9646
A_1     C     0.4203     0.4538     0.4382
A_1     C     0.1586     0.4232     0.5403
A_0     C     0.2503     0.1548     0.1349
A_0     C     0.5144     0.3696     0.0362
A_3     C     0.3475     0.5461     0.3484
A_2     C     0.3432     0.8269     0.1056
A_2     C     0.5746     0.6813     0.0844
A_3     C     0.0625     0.3397     0.8258
A_1     C     0.3319     0.9921     0.557
A_2     C     0.767     0.3591     0.7997
A_1     C     0.9731     0.6961     0.586
A_0     C     0.244     0.5497     0.7997
A_0     C     0.6521     0.574     0.751
A_3     C     0.0122     0.9163     0.2391
A_3     C     0.471     0.4962     0.545
A_1     C     0.8423     0.4404     0.8278
A_2     C     0.3221     0.07     0.1719
A_3     C     0.2678     0.6883     0.7082
A_3     C     0.0733     0.6842     0.0728
A_0     C     0.8287     0.3538     0.5663
A_3     C     0.0623     0.1942     0.7068
A_2     C     0.5601     0.2474     0.2729
A_1     C     0.6763     0.6613     0.0924
A_3     C     0.4677     0.4395     0.0989
A_0     C     0.9536     0.792     0.6112
A_3     C     0.4861     0.0458     0.0244
A_3     C     0.3612     0.7818     0.6228
A_1     C     0.9062     0.8128     0.7569
A_2     C     0.2646     0.4453     0.7008
A_2     C     0.063     0.5491     0.5411
A_1     C     0.4753     0.9405     0.0322
A_0     C     0.3188     0.3983     0.6714
A_2     C     0.251     0.0997     0.4323
A_1     C     0.5638     0.6371     0.321
A_2     C     0.8261     0.2715     0.0558
A_1     C     0.6056     0.191     0.8963
A_3     C     0.248     0.2367     0.9629
A_3     C     0.5236     0.1658     0.4329
A_2     C     0.2435     0.7538     0.427
A_0     C     0.7922     0.6849     0.8053
A_1     C     0.481     0.6524     0.5856
A_3     C     0.0112     0.4478     0.2144
A_3     C     0.3012     0.7704     0.6384
A_2     C     0.9723     0.1236     0.029
A_3     C     0.8139     0.7267     0.4581
A_1     C     0.5855     0.5116     0.3375
A_2     C     0.2978     0.17     0.2911
A_0     C     0.1577     0.8695     0.9354
A_2     C     0.9906     0.884     0.5831
A_1     C     0.6361     0.2504     0.6225
A_1     C     0.4866     0.6659     0.1334
A_0     C     0.6985     0.1561     0.2853
A_0     C     0.4619     0.8878     0.5346
A_1     C     0.4172     0.0245     0.9491
A_1     C     0.0765     0.8481     0.2056
A_3     C     0.1647     0.8383     0.0124
A_1     C     0.3101     0.5781     0.9229
A_0     C     0.1175     0.6223     0.2419
A_2     C     0.2141     0.9015     0.5092
A_3     C     0.5372     0.3392     0.127
A_2     C     0.7359     0.3219     0.5986
A_0     C     0.758     0.2605     0.0514
A_1     C     0.4309     0.3847     0.5817
A_3     C     0.7136     0.3508     0.131
A_1     C     0.6144     0.0206     0.506
A_0     C     0.4219     0.3326     0.6356
A_2     C     0.8615     0.4666     0.9424
A_3     C     0.8549     0.4135     0.93
A_1     C     0.8679     0.6072     0.5451
A_1     C     0.2927     0.049     0.5202
A_0     C     0.0651     0.334     0.8704
A_1     C     0.4629     0.165     0.5803
A_3     C     0.5209     0.9398     0.0638
A_1     C     0.5701     0.178     0.7315
A_1     C     0.8003     0.2934     0.0058
A_1     C     0.6981     0.1691     0.9861
A_1     C     0.4474     0.6966     0.1114
A_0     C     0.645     0.6253     0.6461
A_2     C     0.4171     0.0989     0.8809
A_3     C     0.4562     0.9844     0.5302
A_1     C     0.9286     0.3068     0.0751
A_2     C     0.6095     0.0336     0.3561
A_2     C     0.3778     0.1193     0.5058
A_0     C     0.5952     0.3725     0.318
A_1     C     0.0848     0.4395     0.1741
A_2     C     0.6428     0.5714     0.9731
A_0     C     0.1247     0.7712     0.0221
A_2     C     0.5677     0.7053     0.4145
A_0     C     0.4038     0.8866     0.4612
A_3     C     0.6906     0.9487     0.2982
A_2     C     0.6079     0.5706     0.8291
A_3     C     0.9891     0.1812     0.4064
A_3     C     0.2275     0.502     0.3726
A_1     C     0.5925     0.8895     0.0895
A_0     C     0.6763     0.7587     0.5018
A_0     C     0.2027     0.5965     0.7882
A_2     C     0.0301     0.6738     0.2122
A_3     C     0.337     0.4825     0.5859
A_3     C     0.9344     0.1989     0.8766
A_1     C     0.6739     0.2493     0.2141
A_2     C     0.8915     0.6978     0.6953
A_2     C     0.6924     0.5941     0.1637
A_0     C     0.3333     0.2448     0.3258
A_2     C     0.5207     0.3879     0.3913
A_1     C     0.6325     0.051     0.7959
A_1     C     0.8027     0.2545     0.9899
A_3     C     0.195     0.3955     0.9618
A_2     C     0.5488     0.413     0.1024
A_1     C     0.7873     0.3027     0.6621
A_0     C     0.8786     0.3793     0.578
A_1     C     0.6952     0.5106     0.1882
A_1     C     0.3981     0.8941     0.2326
A_0     C     0.4508     0.7201     0.9677
A_2     C     0.7808     0.441     0.1904
A_2     C     0.6374     0.1588     0.3202
A_1     C     0.1843     0.9359     0.8365
A_0     C     0.89     0.649     0.517
A_2     C     0.3407     0.7095     0.072
A_3     C     0.5964     0.2702     0.0642
A_0     C     0.131     0.2486     0.4758
A_0     C     0.2304     0.0418     0.6074
A_1     C     0.096     0.0754     0.7236
A_3     C     0.0816     0.3629     0.403
A_0     C     0.0024     0.8165     0.2327
A_1     C     0.9051     0.134     0.6629
A_0     C     0.7088     0.7446     0.386
A_0     C     0.3052     0.5579     0.4326
A_2     C     0.7788     0.7529     0.2618
A_1     C     0.3455     0.1919     0.4186
A_2     C     0.2499     0.4965     0.1675
A_3     C     0.4695     0.1046     0.329
A_0     C     0.0439     0.135     0.7211
A_0     C     0.9037     0.6731     0.7201
A_0     C     0.4105     0.824     0.2146
A_3     C     0.1946     0.6834     0.0809
A_1     C     0.2054     0.2935     0.3239
A_2     C     0.4696     0.6584     0.0407
A_2     C     0.4704     0.4061     0.5555
A_2     C     0.8062     0.8867     0.1074
A_1     C     0.8062     0.9828     0.7412
A_2     C     0.9537     0.3971     0.9197
A_3     C     0.5201     0.5612     0.485
A_3     C     0.0651     0.298     0.5426
A_3     C     0.0683     0.9567     0.3237
A_2     C     0.627     0.3013     0.6985
A_3     C     0.5628     0.597     0.3181
A_3     C     0.45     0.7857     0.1589
A_1     C     0.8369     0.8652     0.2362
A_0     C     0.2996     0.9827     0.0569
A_2     C     0.5632     0.6164     0.1335
A_1     C     0.9564     0.9872     0.1307
A_0     C     0.0603     0.0889     0.149
A_1     C     0.2559     0.2686     0.693
A_0     C     0.8743     0.5408     0.0312
A_1     C     0.4726     0.0307     0.7277
A_1     C     0.1801     0.9455     0.7729
A_3     C     0.926     0.3362     0.7486
A_1     C     0.3993     0.4397     0.0394
A_2     C     0.4755     0.7921     0.0264
A_3     C     0.0663     0.4829     0.6572
A_3     C     0.4821     0.7169     0.2688
A_0     C     0.1181     0.9858     0.0502
A_2     C     0.8332     0.8666     0.0645
A_2     C     0.8083     0.672     0.1555
A_0     C     0.9311     0.2786     0.3113
A_2     C     0.3833     0.8234     0.0228
A_3     C     0.7403     0.3623     0.7919
A_1     C     0.3554     0.3696     0.4927
A_2     C     0.864     0.7797     0.603
A_0     C     0.112     0.5668     0.9709
A_3     C     0.0886     0.3007     0.1229
A_1     C     0.7595     0.7276     0.0938
A_1     C     0.4036     0.4599     0.5969
A_2     C     0.9612     0.1403     0.2537
A_3     C     0.6229     0.6639     0.6732
A_0     C     0.9488     0.9865     0.2978
A_2     C     0.6856     0.5436     0.5898
A_3     C     0.5714     0.3576     0.744
A_2     C     0.0094     0.8373     0.2195
A_0     C     0.2357     0.2147     0.9939
A_2     C     0.0234     0.5447     0.5264
A_0     C     0.6945     0.5001     0.4727
A_2     C     0.1899     0.8104     0.4315
A_1     C     0.9729     0.901     0.7457
