MAT-20

loop_
_symmetry_equiv_pos_as_xyz
  x,y,z
_cell_length_a          23.3831
_cell_length_b          38.9391
_cell_length_c          33.28
_cell_angle_alpha       90.0000
_cell_angle_beta        90.0000
_cell_angle_gamma       90.0000
loop_
_atom_site_label
_atom_site_type_symbol
_atom_site_fract_x
_atom_site_fract_y
_atom_site_fract_z
A_2     C     0.958     0.2764     0.822
A_1     C     0.8648     0.9736     0.6425
A_0     C     0.7894     0.6358     0.6737
A_1     C     0.3124     0.3325     0.1156
A_0     C     0.181     0.5374     0.2285
A_1     C     0.4151     0.2857     0.0149
A_0     C     0.0979     0.1804     0.1407
A_2     C     0.3463     0.8935     0.8275
A_3     C     0.7327     0.1783     0.9539
A_1     C     0.8816     0.9932     0.7901
A_0     C     0.2826     0.9003     0.9292
A_2     C     0.6778     0.5092     0.5901
A_0     C     0.8673     0.098     0.6357
A_1     C     0.5233     0.2436     0.3534
A_2     C     0.7748     0.8155     0.1445
A_2     C     0.0397     0.1165     0.4634
A_0     C     0.3065     0.3133     0.2598
A_1     C     0.4205     0.9344     0.8308
A_1     C     0.9771     0.3908     0.8296
A_1     C     0.881     0.5688     0.3788
A_3     C     0.6708     0.0951     0.6543
A_1     C     0.3567     0.6562     0.8891
A_1     C     0.677     0.8968     0.8466
A_1     C     0.6947     0.6374     0.6967
A_0     C     0.1563     0.076     0.3991
A_2     C     0.824     0.8164     0.92
A_1     C     0.8071     0.9641     0.1725
A_1     C     0.945     0.4228     0.691
A_0     C     0.9108     0.613     0.5046
A_1     C     0.7651     0.4018     0.6816
A_2     C     0.6708     0.0831     0.0376
A_3     C     0.4756     0.4462     0.5046
A_0     C     0.683     0.6079     0.6067
A_3     C     0.8697     0.3981     0.9522
A_1     C     0.6108     0.2357     0.3645
A_3     C     0.6212     0.0615     0.9727
A_1     C     0.5573     0.4341     0.8384
A_3     C     0.9534     0.1151     0.437
A_3     C     0.1836     0.3632     0.3215
A_0     C     0.1925     0.8186     0.5791
A_2     C     0.3556     0.6502     0.5303
A_0     C     0.7712     0.3337     0.3141
A_1     C     0.9343     0.63     0.246
A_2     C     0.2589     0.8688     0.3414
A_2     C     0.9837     0.8556     0.0601
A_0     C     0.128     0.532     0.8966
A_2     C     0.9514     0.22     0.9886
A_1     C     0.5978     0.9138     0.6655
A_2     C     0.9175     0.3905     0.4447
A_2     C     0.6668     0.4494     0.2843
A_3     C     0.8953     0.2476     0.0349
A_1     C     0.2549     0.959     0.6095
A_1     C     0.9393     0.6399     0.0732
A_0     C     0.2244     0.9945     0.7663
A_0     C     0.5942     0.5952     0.7911
A_1     C     0.4255     0.3163     0.3651
A_3     C     0.3648     0.2284     0.0923
A_0     C     0.0892     0.673     0.7789
A_3     C     0.3627     0.4798     0.4829
A_2     C     0.4293     0.351     0.5328
A_2     C     0.7009     0.4799     0.653
A_0     C     0.0029     0.5863     0.4183
A_0     C     0.5127     0.7611     0.556
A_0     C     0.0976     0.2332     0.2754
A_1     C     0.1308     0.883     0.0691
A_2     C     0.8907     0.4865     0.948
A_0     C     0.3917     0.4824     0.7411
A_2     C     0.7233     0.0914     0.7416
A_0     C     0.8961     0.6662     0.5595
A_1     C     0.3188     0.116     0.3484
A_0     C     0.187     0.9829     0.6959
A_2     C     0.4027     0.7245     0.6135
A_3     C     0.5527     0.8223     0.755
A_3     C     0.4921     0.4949     0.6715
A_3     C     0.6881     0.4902     0.2778
A_1     C     0.4641     0.1896     0.097
A_2     C     0.8812     0.9979     0.4898
A_3     C     0.1262     0.9148     0.2443
A_3     C     0.8876     0.8236     0.245
A_0     C     0.5545     0.5893     0.6453
A_2     C     0.0797     0.6123     0.099
A_0     C     0.9446     0.4938     0.8507
A_2     C     0.4914     0.3721     0.5655
A_3     C     0.6972     0.0035     0.3747
A_2     C     0.0987     0.2816     0.9191
A_3     C     0.9664     0.8802     0.4214
A_2     C     0.6874     0.3055     0.1938
A_2     C     0.9857     0.3859     0.974
A_0     C     0.6302     0.8691     0.7
A_3     C     0.4105     0.5659     0.3565
A_2     C     0.6412     0.7031     0.2479
A_1     C     0.5499     0.0707     0.9061
A_3     C     0.9067     0.2501     0.9195
A_3     C     0.1413     0.0777     0.0192
A_3     C     0.5637     0.2225     0.2892
A_3     C     0.1706     0.8786     0.4497
A_0     C     0.1193     0.2787     0.3426
A_2     C     0.9018     0.9854     0.1961
A_3     C     0.798     0.4069     0.2865
A_0     C     0.4488     0.4856     0.9039
A_1     C     0.5651     0.8391     0.9536
A_1     C     0.037     0.4443     0.4336
A_1     C     0.1471     0.5544     0.9293
A_2     C     0.7756     0.9891     0.8385
A_0     C     0.1722     0.3354     0.3464
A_1     C     0.3972     0.6043     0.433
A_3     C     0.0393     0.8429     0.803
A_0     C     0.1091     0.3769     0.3067
A_1     C     0.317     0.0561     0.025
A_0     C     0.4188     0.853     0.3677
A_3     C     0.0452     0.4203     0.0202
A_3     C     0.494     0.3782     0.678
A_0     C     0.9814     0.0197     0.5604
A_2     C     0.3346     0.4873     0.5634
A_3     C     0.8012     0.9435     0.0069
A_2     C     0.5645     0.7459     0.9812
A_3     C     0.776     0.5789     0.3551
A_0     C     0.4304     0.5933     0.3345
A_2     C     0.1743     0.2777     0.27
A_3     C     0.7882     0.7194     0.2836
A_2     C     0.0699     0.0781     0.561
A_3     C     0.5777     0.8321     0.1927
A_1     C     0.9551     0.9819     0.0006
A_2     C     0.1232     0.3729     0.3532
A_2     C     0.4053     0.4445     0.7112
A_0     C     0.9189     0.5168     0.4339
A_3     C     0.1986     0.013     0.6338
A_1     C     0.3758     0.8078     0.0517
A_0     C     0.0853     0.9561     0.3865
A_1     C     0.7166     0.1     0.8468
A_3     C     0.3377     0.6867     0.0641
A_1     C     0.8258     0.513     0.0074
A_3     C     0.2385     0.8412     0.5332
A_3     C     0.4058     0.0145     0.2013
A_2     C     0.5897     0.1302     0.7166
A_1     C     0.7408     0.6987     0.6267
A_0     C     0.3962     0.4682     0.0047
A_2     C     0.1692     0.207     0.3137
A_2     C     0.8376     0.1539     0.9482
A_1     C     0.1189     0.6728     0.9994
A_2     C     0.4862     0.4018     0.7448
A_0     C     0.0283     0.0643     0.362
A_2     C     0.1255     0.6506     0.4452
A_0     C     0.0383     0.5943     0.8105
A_1     C     0.5587     0.7122     0.4296
A_0     C     0.3138     0.3166     0.8087
A_3     C     0.4006     0.4889     0.5156
A_2     C     0.7831     0.0103     0.1382
A_1     C     0.985     0.6036     0.1498
A_1     C     0.0551     0.6008     0.3622
A_0     C     0.1964     0.1075     0.3007
A_2     C     0.7334     0.5981     0.6849
A_0     C     0.6063     0.0443     0.1314
A_0     C     0.0216     0.1359     0.3048
A_0     C     0.823     0.8534     0.2782
A_1     C     0.1026     0.3908     0.9909
A_1     C     0.0517     0.4055     0.8024
A_3     C     0.8199     0.1113     0.6789
A_3     C     0.1011     0.2425     0.3137
A_1     C     0.2884     0.766     0.4256
A_1     C     0.9008     0.6905     0.1675
A_0     C     0.2721     0.008     0.2301
A_1     C     0.3195     0.6116     0.5939
A_0     C     0.4458     0.9411     0.3
A_0     C     0.1749     0.8267     0.4343
A_1     C     0.0728     0.7141     0.6003
A_2     C     0.6851     0.3215     0.2843
A_2     C     0.4746     0.6486     0.4546
A_3     C     0.0801     0.7237     0.6337
A_3     C     0.9548     0.3352     0.4424
A_3     C     0.9369     0.4046     0.063
A_0     C     0.6252     0.4832     0.7669
A_1     C     0.3826     0.3532     0.8764
A_0     C     0.6465     0.182     0.3989
A_1     C     0.0606     0.0045     0.2461
A_1     C     0.5065     0.1219     0.8132
A_3     C     0.1625     0.6525     0.6114
A_1     C     0.6003     0.4489     0.7877
A_2     C     0.9751     0.6432     0.9466
A_3     C     0.8655     0.4559     0.1924
A_2     C     0.3809     0.7815     0.3946
A_0     C     0.2626     0.7771     0.496
A_0     C     0.643     0.1474     0.4918
A_0     C     0.0268     0.3234     0.3444
A_3     C     0.8732     0.557     0.6937
A_3     C     0.6501     0.864     0.105
A_2     C     0.2932     0.5697     0.4177
A_3     C     0.2754     0.6643     0.4961
A_3     C     0.325     0.3968     0.3188
A_2     C     0.7576     0.4385     0.6148
A_2     C     0.1302     0.1525     0.2678
A_2     C     0.6776     0.7435     0.221
A_1     C     0.9782     0.2999     0.5503
A_3     C     0.5068     0.0249     0.0553
A_1     C     0.2843     0.1979     0.5346
A_3     C     0.9801     0.7198     0.7521
A_3     C     0.9614     0.8574     0.9331
A_2     C     0.6998     0.2126     0.4311
A_0     C     0.2161     0.4346     0.9883
A_3     C     0.4309     0.5902     0.0145
A_1     C     0.2892     0.3777     0.2949
A_3     C     0.1137     0.062     0.3173
A_0     C     0.295     0.6746     0.0603
A_1     C     0.9623     0.559     0.0143
A_2     C     0.7034     0.1883     0.0801
A_0     C     0.5598     0.2799     0.2096
A_1     C     0.2958     0.3935     0.1911
A_3     C     0.3778     0.8333     0.1523
A_0     C     0.6026     0.7565     0.2799
A_1     C     0.526     0.4662     0.5868
A_3     C     0.0236     0.6024     0.5469
A_2     C     0.9167     0.9709     0.0373
A_0     C     0.9028     0.9543     0.9791
A_2     C     0.2937     0.3644     0.2014
A_1     C     0.3294     0.6183     0.5782
A_1     C     0.4525     0.189     0.1293
A_3     C     0.25     0.4969     0.5693
A_2     C     0.4793     0.2373     0.6526
A_2     C     0.1273     0.1616     0.8289
A_2     C     0.3784     0.3225     0.7251
A_1     C     0.8905     0.8846     0.1904
A_2     C     0.3206     0.5076     0.525
A_2     C     0.8518     0.1485     0.3564
A_0     C     0.2997     0.319     0.302
A_1     C     0.1308     0.0688     0.3945
A_2     C     0.4736     0.9533     0.4383
A_1     C     0.0389     0.4925     0.2914
A_3     C     0.1063     0.1561     0.5515
A_0     C     0.7471     0.0373     0.2019
A_0     C     0.5863     0.4465     0.9537
A_2     C     0.6763     0.7373     0.4203
A_1     C     0.9037     0.5066     0.0616
A_3     C     0.6548     0.378     0.4609
A_2     C     0.8462     0.7697     0.1549
A_3     C     0.8337     0.0273     0.7767
A_1     C     0.1383     0.7113     0.4066
A_2     C     0.3994     0.5647     0.9109
A_1     C     0.1734     0.7033     0.9811
A_1     C     0.617     0.7457     0.2923
A_3     C     0.8295     0.0805     0.9852
A_2     C     0.8869     0.5155     0.5743
A_0     C     0.8737     0.1577     0.5149
A_3     C     0.7153     0.6716     0.7945
A_0     C     0.1481     0.0313     0.5244
A_1     C     0.9325     0.8657     0.328
A_1     C     0.2647     0.0011     0.4529
A_0     C     0.1972     0.9001     0.3431
A_0     C     0.0381     0.4535     0.7991
A_3     C     0.2279     0.6667     0.023
A_1     C     0.1519     0.4042     0.3061
A_0     C     0.8846     0.8162     0.1674
A_0     C     0.4922     0.8418     0.1233
A_1     C     0.471     0.0618     0.7319
A_0     C     0.7986     0.7236     0.8179
A_1     C     0.1671     0.2136     0.156
A_2     C     0.4664     0.7389     0.0117
A_2     C     0.2212     0.9529     0.165
A_3     C     0.4793     0.8926     0.819
A_2     C     0.3588     0.418     0.9492
A_0     C     0.1861     0.6143     0.0847
A_2     C     0.5086     0.2866     0.2031
A_2     C     0.65     0.1846     0.7355
A_3     C     0.4259     0.4371     0.5188
A_1     C     0.4309     0.6647     0.1036
A_3     C     0.8913     0.9419     0.3268
A_2     C     0.3431     0.6017     0.1202
A_1     C     0.1169     0.7467     0.5242
A_0     C     0.3484     0.655     0.5294
A_2     C     0.1048     0.3866     0.6663
A_2     C     0.4562     0.3603     0.2793
A_0     C     0.1078     0.4856     0.0446
A_0     C     0.2201     0.1776     0.9024
A_3     C     0.7457     0.772     0.3418
A_0     C     0.5364     0.6966     0.4377
A_0     C     0.5295     0.1837     0.5667
A_0     C     0.1667     0.4148     0.7643
A_0     C     0.0192     0.4343     0.648
A_3     C     0.6625     0.4294     0.0895
A_3     C     0.4621     0.8346     0.678
A_3     C     0.48     0.3335     0.4196
A_3     C     0.7754     0.7788     0.7496
A_2     C     0.2287     0.1564     0.3585
A_2     C     0.8699     0.1621     0.3539
A_3     C     0.4436     0.3216     0.9149
A_1     C     0.3308     0.9661     0.6736
A_1     C     0.8307     0.6319     0.0081
A_0     C     0.756     0.928     0.3753
A_3     C     0.8274     0.5885     0.3421
A_0     C     0.5231     0.9317     0.4192
A_2     C     0.4685     0.2397     0.8315
A_0     C     0.9289     0.6674     0.7701
A_2     C     0.1624     0.6026     0.666
A_1     C     0.5951     0.0816     0.9098
A_1     C     0.4297     0.2019     0.3543
A_0     C     0.0049     0.718     0.433
A_3     C     0.5342     0.7338     0.2085
A_0     C     0.4927     0.2978     0.756
A_1     C     0.1081     0.4375     0.0961
A_0     C     0.1779     0.0662     0.6816
A_1     C     0.1782     0.8834     0.3045
A_2     C     0.4525     0.0511     0.4604
A_1     C     0.2648     0.4279     0.1462
A_3     C     0.4318     0.3396     0.9077
A_3     C     0.5437     0.1854     0.7042
A_2     C     0.8463     0.618     0.8825
A_0     C     0.7557     0.5307     0.5538
A_2     C     0.0098     0.9109     0.4586
A_2     C     0.0883     0.943     0.0878
A_1     C     0.0418     0.3949     0.8323
A_3     C     0.2026     0.6231     0.008
A_1     C     0.4456     0.5164     0.4006
A_2     C     0.9707     0.8858     0.8148
A_3     C     0.6602     0.5679     0.2992
A_1     C     0.963     0.6388     0.8794
A_1     C     0.5077     0.304     0.4078
A_0     C     0.4562     0.036     0.6137
A_1     C     0.2477     0.241     0.058
A_1     C     0.5713     0.9694     0.3565
A_3     C     0.9194     0.3221     0.0233
A_1     C     0.6411     0.1067     0.9905
A_3     C     0.4152     0.2153     0.9513
A_1     C     0.0574     0.4182     0.6962
A_3     C     0.2802     0.0032     0.471
A_2     C     0.7765     0.1517     0.1668
A_1     C     0.8222     0.3544     0.0494
A_0     C     0.5664     0.2183     0.554
A_3     C     0.4196     0.6416     0.8652
A_3     C     0.4342     0.4495     0.18
A_3     C     0.7664     0.8311     0.3355
A_2     C     0.0976     0.5877     0.4793
A_1     C     0.4342     0.0984     0.4251
A_1     C     0.3112     0.1381     0.1954
A_3     C     0.3283     0.3721     0.8648
A_3     C     0.8515     0.4275     0.9289
A_1     C     0.4816     0.5738     0.7909
A_0     C     0.5513     0.9706     0.9619
A_3     C     0.8119     0.5079     0.1386
A_1     C     0.0129     0.4157     0.7443
A_1     C     0.4431     0.2699     0.3048
A_1     C     0.6264     0.6347     0.583
A_0     C     0.8467     0.4439     0.8321
A_1     C     0.2199     0.0415     0.4531
A_3     C     0.3946     0.1609     0.5311
A_2     C     0.3335     0.9166     0.9978
A_2     C     0.2051     0.6116     0.3813
A_2     C     0.2123     0.1803     0.1155
A_3     C     0.4953     0.2647     0.333
A_0     C     0.3488     0.4224     0.1413
A_2     C     0.9211     0.1664     0.0063
A_2     C     0.1007     0.2342     0.3986
A_3     C     0.1422     0.3244     0.9014
A_3     C     0.838     0.002     0.8771
A_0     C     0.9652     0.4263     0.0738
A_2     C     0.2315     0.5433     0.1453
A_3     C     0.396     0.7643     0.9766
A_3     C     0.1925     0.7778     0.2771
A_1     C     0.835     0.6329     0.7631
A_3     C     0.0918     0.9958     0.0266
A_1     C     0.6495     0.9873     0.9797
A_0     C     0.9412     0.1893     0.2132
A_2     C     0.4981     0.8447     0.2479
A_2     C     0.9855     0.9786     0.1951
A_1     C     0.3815     0.0096     0.1823
A_2     C     0.1633     0.8701     0.9975
A_2     C     0.4416     0.3933     0.3784
A_1     C     0.6836     0.8294     0.4051
A_2     C     0.3338     0.8863     0.4359
A_0     C     0.2156     0.2104     0.174
A_0     C     0.1793     0.727     0.973
A_2     C     0.4697     0.8286     0.3765
A_0     C     0.342     0.1079     0.1821
A_2     C     0.5819     0.2977     0.4474
A_2     C     0.8996     0.4487     0.5067
A_3     C     0.0997     0.3622     0.4316
A_3     C     0.6075     0.0157     0.6449
A_1     C     0.5368     0.3964     0.046
A_2     C     0.7292     0.557     0.6523
A_2     C     0.5939     0.2064     0.365
A_1     C     0.4456     0.1021     0.7113
A_3     C     0.1095     0.1865     0.0835
A_3     C     0.9595     0.0367     0.2366
A_3     C     0.1311     0.3423     0.8277
A_1     C     0.5835     0.7257     0.9288
A_3     C     0.601     0.2877     0.362
A_2     C     0.2183     0.8995     0.0096
A_1     C     0.1915     0.76     0.8894
A_2     C     0.0912     0.8387     0.2534
A_3     C     0.9107     0.1235     0.5317
A_0     C     0.4985     0.9117     0.84
A_1     C     0.5265     0.0291     0.3947
A_0     C     0.8359     0.8056     0.8288
A_3     C     0.0244     0.8366     0.1797
A_1     C     0.2067     0.892     0.8274
A_0     C     0.9298     0.3369     0.2755
A_3     C     0.6351     0.7765     0.4144
A_0     C     0.269     0.4615     0.3523
A_3     C     0.2191     0.7895     0.8453
A_3     C     0.0167     0.5185     0.0255
A_2     C     0.4001     0.8156     0.0983
A_0     C     0.324     0.9948     0.2869
A_3     C     0.0458     0.3281     0.0972
A_3     C     0.762     0.2392     0.1853
A_1     C     0.8747     0.5546     0.5559
A_2     C     0.6035     0.9346     0.3819
A_3     C     0.8804     0.5954     0.4117
A_3     C     0.1948     0.6069     0.6428
A_2     C     0.9285     0.592     0.1787
A_3     C     0.0257     0.553     0.8425
A_0     C     0.5002     0.3813     0.0695
A_0     C     0.8969     0.8305     0.7273
A_3     C     0.9623     0.3941     0.2096
A_1     C     0.3288     0.1192     0.0145
A_0     C     0.6074     0.5873     0.6234
A_1     C     0.9176     0.008     0.6069
A_1     C     0.0905     0.0342     0.9895
A_1     C     0.702     0.9631     0.1696
A_3     C     0.8901     0.6265     0.8088
A_0     C     0.6676     0.1303     0.4543
A_1     C     0.4376     0.361     0.1334
A_1     C     0.3587     0.5238     0.4398
A_2     C     0.3663     0.7746     0.9206
A_3     C     0.3474     0.3518     0.5253
A_3     C     0.9143     0.8021     0.3452
A_3     C     0.4538     0.1259     0.3114
A_2     C     0.1521     0.2166     0.3525
A_0     C     0.1307     0.8692     0.609
A_3     C     0.895     0.9879     0.83
A_3     C     0.7439     0.8043     0.3462
A_0     C     0.1404     0.1338     0.1893
A_0     C     0.0676     0.2393     0.9342
A_0     C     0.8797     0.4835     0.042
A_3     C     0.3908     0.8447     0.2829
A_0     C     0.1199     0.1511     0.7776
A_3     C     0.1753     0.904     0.9448
A_1     C     0.8042     0.9437     0.7119
A_3     C     0.1624     0.9909     0.6251
A_3     C     0.0841     0.48     0.862
A_0     C     0.2683     0.5726     0.2102
A_2     C     0.377     0.214     0.3346
A_0     C     0.0532     0.5139     0.4226
A_1     C     0.7666     0.6633     0.9272
A_1     C     0.281     0.6645     0.166
A_3     C     0.369     0.1511     0.1959
A_2     C     0.7924     0.6863     0.8184
A_2     C     0.9863     0.3093     0.6832
A_2     C     0.6955     0.4363     0.5122
A_1     C     0.9043     0.48     0.1987
A_1     C     0.8176     0.4181     0.6247
A_0     C     0.792     0.924     0.2325
A_2     C     0.6532     0.8351     0.4663
A_1     C     0.0696     0.7482     0.1821
A_2     C     0.2296     0.9903     0.4272
A_1     C     0.6915     0.1226     0.0842
A_2     C     0.9517     0.4677     0.3568
A_1     C     0.1201     0.7818     0.5343
A_3     C     0.0945     0.3405     0.9932
A_1     C     0.988     0.7697     0.7005
A_3     C     0.3334     0.471     0.9201
A_3     C     0.5179     0.5059     0.1847
A_0     C     0.6623     0.4506     0.8382
A_0     C     0.9266     0.6644     0.5714
A_0     C     0.9658     0.4877     0.2721
A_3     C     0.0001     0.5272     0.0304
A_2     C     0.0185     0.8476     0.0328
A_1     C     0.0632     0.6574     0.0544
A_0     C     0.598     0.2535     0.4898
A_3     C     0.3948     0.5678     0.3948
A_2     C     0.8544     0.4553     0.7683
A_3     C     0.8977     0.2042     0.91
A_0     C     0.3943     0.7906     0.4153
A_3     C     0.6017     0.8277     0.2206
A_1     C     0.7399     0.9229     0.4584
A_1     C     0.5987     0.5774     0.0432
A_0     C     0.1409     0.4175     0.9455
A_0     C     0.4007     0.3679     0.9044
A_1     C     0.8229     0.9058     0.5753
A_3     C     0.2649     0.385     0.4338
A_0     C     0.7135     0.2907     0.7123
A_2     C     0.8852     0.6925     0.3773
A_3     C     0.0387     0.0273     0.9953
A_1     C     0.7975     0.2438     0.7794
A_0     C     0.743     0.077     0.9309
A_1     C     0.054     0.8219     0.3814
A_3     C     0.3513     0.6949     0.4716
A_1     C     0.8508     0.2907     0.6447
A_1     C     0.5481     0.6273     0.5841
A_2     C     0.0226     0.1497     0.0437
A_0     C     0.9022     0.3243     0.4362
A_2     C     0.7195     0.5086     0.1475
A_1     C     0.8463     0.4663     0.1771
A_0     C     0.4618     0.2445     0.7131
A_1     C     0.9861     0.5232     0.091
A_3     C     0.4021     0.1639     0.7373
A_3     C     0.2701     0.0806     0.1229
A_0     C     0.2003     0.6459     0.7308
A_3     C     0.8871     0.0244     0.3871
A_3     C     0.296     0.9385     0.3767
A_2     C     0.4214     0.6807     0.0607
A_0     C     0.0292     0.8026     0.7792
A_3     C     0.0644     0.2291     0.7349
A_3     C     0.5132     0.359     0.656
A_1     C     0.2932     0.3221     0.2758
A_2     C     0.069     0.8902     0.2444
A_2     C     0.4194     0.295     0.0471
A_3     C     0.0537     0.5218     0.4392
A_3     C     0.0666     0.5911     0.1432
A_0     C     0.2597     0.4127     0.6231
A_0     C     0.7945     0.0622     0.3183
A_0     C     0.5679     0.2001     0.2707
A_1     C     0.0223     0.5204     0.5026
A_1     C     0.6995     0.5862     0.01
A_1     C     0.4163     0.8134     0.9912
A_3     C     0.2437     0.9375     0.3602
A_0     C     0.8044     0.6784     0.4101
A_3     C     0.2615     0.6655     0.7917
A_3     C     0.3924     0.5283     0.9763
A_1     C     0.4148     0.022     0.3801
A_3     C     0.0502     0.6961     0.6037
A_3     C     0.2784     0.7602     0.5848
A_2     C     0.3664     0.3908     0.9366
A_0     C     0.4363     0.6866     0.8711
A_1     C     0.7498     0.5004     0.5722
A_2     C     0.0735     0.6929     0.1321
A_3     C     0.8467     0.9443     0.774
A_2     C     0.665     0.6002     0.2758
A_3     C     0.1037     0.0915     0.8385
A_1     C     0.2301     0.3156     0.0791
A_3     C     0.2053     0.1765     0.6691
A_1     C     0.3685     0.784     0.292
A_2     C     0.7012     0.7449     0.0748
A_1     C     0.9051     0.0995     0.0257
A_2     C     0.45     0.008     0.6378
A_1     C     0.407     0.6018     0.1197
A_1     C     0.6872     0.4631     0.0723
A_1     C     0.2423     0.1937     0.7086
A_0     C     0.567     0.5289     0.4483
A_1     C     0.7479     0.089     0.9703
A_1     C     0.7236     0.7142     0.8038
A_1     C     0.2482     0.4534     0.593
A_0     C     0.4171     0.8656     0.0807
A_3     C     0.138     0.8396     0.4538
A_2     C     0.7461     0.8171     0.8715
A_3     C     0.9088     0.86     0.3376
A_3     C     0.9024     0.6763     0.5717
A_0     C     0.3204     0.8891     0.5507
A_2     C     0.3826     0.7437     0.2139
A_2     C     0.7411     0.2564     0.7632
A_2     C     0.6113     0.8635     0.1391
A_3     C     0.2101     0.307     0.648
A_3     C     0.5928     0.052     0.6989
A_0     C     0.9795     0.0191     0.931
A_0     C     0.8809     0.234     0.9806
A_0     C     0.445     0.7775     0.9677
A_0     C     0.8691     0.7024     0.3864
A_2     C     0.0001     0.9191     0.923
A_1     C     0.3709     0.5865     0.0806
A_2     C     0.6194     0.708     0.848
A_3     C     0.1505     0.2623     0.6425
A_0     C     0.3607     0.2285     0.6382
A_2     C     0.9346     0.7045     0.3305
A_2     C     0.105     0.159     0.3973
A_2     C     0.3421     0.7151     0.7138
A_1     C     0.889     0.5016     0.8848
A_2     C     0.9739     0.8974     0.4588
A_2     C     0.5609     0.225     0.2127
A_1     C     0.1918     0.4819     0.3835
A_2     C     0.9579     0.1661     0.1169
A_2     C     0.7811     0.3122     0.8084
A_2     C     0.367     0.5002     0.9412
A_2     C     0.9294     0.1789     0.2272
A_2     C     0.0864     0.2417     0.7987
A_1     C     0.9712     0.7392     0.9262
A_0     C     0.1597     0.4698     0.9662
A_2     C     0.1036     0.932     0.8531
A_3     C     0.4636     0.1525     0.9445
A_1     C     0.3597     0.7564     0.6092
A_2     C     0.348     0.9563     0.8014
A_1     C     0.5672     0.9538     0.0304
A_2     C     0.9876     0.7187     0.3626
A_0     C     0.3436     0.3425     0.4715
A_0     C     0.2736     0.6185     0.8248
A_2     C     0.2748     0.3987     0.048
A_1     C     0.3493     0.152     0.1517
A_3     C     0.7159     0.9763     0.4162
A_3     C     0.2522     0.6711     0.8817
A_2     C     0.1611     0.462     0.7717
A_3     C     0.0625     0.951     0.71
A_2     C     0.9912     0.3558     0.3234
A_2     C     0.342     0.14     0.0676
A_0     C     0.7458     0.5555     0.7917
A_0     C     0.5875     0.0639     0.5319
A_3     C     0.6367     0.2951     0.9885
A_3     C     0.0751     0.8564     0.9346
A_3     C     0.8082     0.7765     0.433
A_0     C     0.2818     0.4845     0.8739
A_0     C     0.4808     0.2458     0.0156
A_0     C     0.0321     0.9496     0.4843
A_1     C     0.0091     0.1456     0.6426
A_1     C     0.8302     0.3571     0.3958
A_0     C     0.419     0.3707     0.1961
A_3     C     0.2051     0.2026     0.8119
A_1     C     0.977     0.193     0.1904
A_0     C     0.8146     0.8436     0.9622
A_3     C     0.5934     0.1631     0.2571
A_0     C     0.4129     0.0677     0.5437
A_3     C     0.5393     0.1054     0.5444
A_0     C     0.7816     0.1588     0.546
A_1     C     0.3987     0.8776     0.6485
A_1     C     0.8644     0.1923     0.576
A_3     C     0.0689     0.0313     0.3489
A_1     C     0.7021     0.1777     0.9639
A_2     C     0.7685     0.3202     0.8057
A_3     C     0.6304     0.1024     0.0067
A_2     C     0.1091     0.4517     0.2652
A_1     C     0.7277     0.4111     0.2227
A_1     C     0.1033     0.1038     0.7915
A_0     C     0.0589     0.3164     0.2761
A_3     C     0.7727     0.1331     0.5729
A_0     C     0.3307     0.9137     0.1484
A_0     C     0.4875     0.8276     0.7352
A_0     C     0.9084     0.7765     0.7626
A_3     C     0.1807     0.66     0.8632
A_3     C     0.7969     0.0682     0.0776
A_1     C     0.3307     0.2284     0.0903
A_3     C     0.5328     0.1008     0.3911
A_2     C     0.9552     0.3693     0.3412
A_3     C     0.4803     0.2597     0.1057
A_3     C     0.8072     0.2121     0.9878
A_3     C     0.1131     0.2909     0.46
A_1     C     0.0169     0.5419     0.0911
A_2     C     0.5863     0.3746     0.6076
A_0     C     0.2282     0.4744     0.2108
A_2     C     0.4737     0.7269     0.4387
A_1     C     0.6452     0.2888     0.5318
A_0     C     0.5418     0.0013     0.9682
A_0     C     0.324     0.5544     0.2478
A_3     C     0.9709     0.9014     0.0761
A_3     C     0.872     0.4576     0.5337
A_3     C     0.6381     0.0679     0.3162
A_3     C     0.1188     0.448     0.4868
A_3     C     0.2029     0.4278     0.6093
A_1     C     0.4737     0.0913     0.9805
A_1     C     0.1909     0.5546     0.6126
A_2     C     0.7332     0.421     0.6126
A_3     C     0.5669     0.2965     0.2742
A_1     C     0.8438     0.437     0.2898
A_3     C     0.6077     0.962     0.7548
A_0     C     0.5039     0.8467     0.8411
A_1     C     0.6024     0.5516     0.9825
A_0     C     0.4161     0.8199     0.1671
A_2     C     0.7202     0.1429     0.1131
A_2     C     0.7931     0.1054     0.2142
A_2     C     0.5004     0.2236     0.178
A_1     C     0.9685     0.1625     0.4263
A_2     C     0.8085     0.8179     0.298
A_2     C     0.4127     0.9509     0.899
A_2     C     0.9452     0.5314     0.6785
A_3     C     0.7787     0.3215     0.0415
A_3     C     0.1792     0.5483     0.0427
A_0     C     0.1831     0.4876     0.4174
A_3     C     0.9805     0.4074     0.4996
A_0     C     0.9336     0.6655     0.917
A_0     C     0.6394     0.5946     0.0874
A_0     C     0.159     0.0362     0.5557
A_3     C     0.1774     0.5848     0.581
A_3     C     0.1298     0.8175     0.8011
A_3     C     0.9061     0.3312     0.2775
A_0     C     0.8047     0.0076     0.7623
A_0     C     0.3088     0.9888     0.8469
A_3     C     0.7457     0.2851     0.1833
A_2     C     0.0893     0.1742     0.9934
A_0     C     0.8426     0.2603     0.0108
A_3     C     0.5139     0.943     0.3057
A_3     C     0.2392     0.0881     0.5175
A_1     C     0.3153     0.5157     0.9986
A_0     C     0.4739     0.4283     0.6831
A_2     C     0.2393     0.4199     0.7133
A_1     C     0.5295     0.5056     0.6286
A_1     C     0.8914     0.1426     0.0257
A_1     C     0.5725     0.8996     0.7086
A_1     C     0.0098     0.3194     0.1767
A_0     C     0.3389     0.1267     0.109
A_0     C     0.2021     0.729     0.0228
A_2     C     0.7238     0.4839     0.0198
A_1     C     0.9675     0.522     0.1946
A_2     C     0.0426     0.2766     0.6225
A_2     C     0.9826     0.6866     0.0944
A_2     C     0.4947     0.9168     0.7269
A_3     C     0.5077     0.0678     0.6974
A_3     C     0.1693     0.7631     0.8754
A_0     C     0.2677     0.7785     0.4905
A_1     C     0.0761     0.2866     0.5212
A_0     C     0.9911     0.3492     0.0054
A_3     C     0.1946     0.8451     0.3776
A_2     C     0.4494     0.5496     0.431
A_3     C     0.1079     0.5237     0.0477
A_3     C     0.1272     0.196     0.3091
A_2     C     0.1852     0.1245     0.6632
A_3     C     0.5516     0.7017     0.947
A_2     C     0.79     0.7031     0.9611
A_2     C     0.4358     0.5414     0.0442
A_2     C     0.6528     0.9914     0.5883
A_3     C     0.1545     0.8568     0.3273
A_3     C     0.8287     0.2222     0.2638
A_2     C     0.3143     0.7758     0.2478
A_0     C     0.9677     0.1642     0.5297
A_0     C     0.8726     0.1759     0.2107
A_2     C     0.3943     0.7455     0.3206
A_1     C     0.4679     0.8273     0.4724
A_3     C     0.5572     0.6071     0.8446
A_0     C     0.6885     0.4736     0.2751
A_3     C     0.2705     0.9089     0.6459
A_3     C     0.3156     0.3903     0.7933
A_3     C     0.2559     0.0019     0.702
A_2     C     0.2748     0.1532     0.1724
A_1     C     0.7152     0.2939     0.7586
A_2     C     0.1388     0.0885     0.6469
A_2     C     0.1193     0.8411     0.6007
A_3     C     0.99     0.306     0.1677
A_1     C     0.4658     0.894     0.6073
A_1     C     0.396     0.7778     0.0406
A_0     C     0.6565     0.6197     0.4965
A_3     C     0.0076     0.9704     0.3935
A_2     C     0.2572     0.5971     0.014
A_1     C     0.063     0.6727     0.0968
A_0     C     0.301     0.2457     0.7998
A_3     C     0.2527     0.81     0.2787
A_1     C     0.0669     0.6577     0.7845
A_0     C     0.5224     0.2226     0.7009
A_3     C     0.404     0.543     0.4959
A_1     C     0.0304     0.2511     0.6031
A_1     C     0.1155     0.3661     0.7377
A_2     C     0.5494     0.2688     0.0892
A_0     C     0.2653     0.5243     0.0083
A_0     C     0.5315     0.8896     0.4438
A_0     C     0.0844     0.1893     0.3138
A_2     C     0.8555     0.9438     0.7279
A_2     C     0.6691     0.2623     0.8844
A_2     C     0.6369     0.1328     0.6287
A_2     C     0.357     0.5369     0.0089
A_1     C     0.9796     0.3039     0.9665
A_1     C     0.3018     0.0608     0.3165
A_2     C     0.7271     0.8865     0.5274
A_1     C     0.6612     0.0869     0.5899
A_1     C     0.4403     0.1479     0.0777
A_3     C     0.3023     0.5681     0.3613
A_1     C     0.5179     0.5118     0.4965
A_3     C     0.3548     0.2593     0.2251
A_2     C     0.8656     0.8119     0.6177
A_0     C     0.5534     0.3368     0.8538
A_1     C     0.913     0.9521     0.1075
A_3     C     0.8857     0.5567     0.7387
A_2     C     0.3105     0.4147     0.2243
A_2     C     0.242     0.3866     0.8156
A_2     C     0.418     0.7359     0.8946
A_0     C     0.8174     0.1104     0.2568
A_2     C     0.935     0.6986     0.8338
A_2     C     0.6159     0.3592     0.4683
A_2     C     0.2324     0.6296     0.4823
A_3     C     0.2492     0.7739     0.0657
A_1     C     0.6876     0.7358     0.6992
A_1     C     0.6709     0.3575     0.3251
A_0     C     0.7638     0.4144     0.1279
A_3     C     0.8529     0.8418     0.6817
A_3     C     0.4034     0.6219     0.6884
A_1     C     0.5122     0.2474     0.3844
A_3     C     0.7562     0.5602     0.9999
A_3     C     0.3261     0.6929     0.5605
A_3     C     0.846     0.9825     0.66
A_1     C     0.229     0.8173     0.3546
A_1     C     0.4006     0.1499     0.6177
A_1     C     0.2367     0.5578     0.0059
A_0     C     0.3235     0.2598     0.3351
A_1     C     0.095     0.2563     0.2257
A_2     C     0.7301     0.0179     0.4961
A_1     C     0.2142     0.6156     0.8402
A_1     C     0.691     0.2295     0.5865
A_0     C     0.277     0.7406     0.0463
A_0     C     0.2208     0.2411     0.7257
A_2     C     0.5361     0.1823     0.3691
A_2     C     0.8845     0.825     0.0741
A_2     C     0.8611     0.8003     0.5989
A_0     C     0.8675     0.4705     0.3798
A_1     C     0.4115     0.4384     0.4744
A_0     C     0.5756     0.0919     0.1533
A_1     C     0.8706     0.3308     0.4991
A_1     C     0.9485     0.5669     0.3757
A_3     C     0.2597     0.4494     0.4217
A_3     C     0.1712     0.3215     0.1072
A_1     C     0.9296     0.7704     0.0959
A_3     C     0.5364     0.476     0.5422
A_1     C     0.7757     0.1265     0.4464
A_1     C     0.4309     0.7454     0.2431
A_2     C     0.2279     0.9797     0.52
A_1     C     0.7581     0.3892     0.3141
A_2     C     0.4541     0.9164     0.1674
A_2     C     0.476     0.455     0.9125
A_2     C     0.3472     0.3131     0.4337
A_1     C     0.5033     0.793     0.1315
A_0     C     0.2653     0.6111     0.6591
A_1     C     0.6544     0.3366     0.3763
A_0     C     0.7961     0.664     0.6293
A_1     C     0.4546     0.0238     0.3037
A_1     C     0.8333     0.9344     0.5969
A_1     C     0.8939     0.1282     0.0138
A_0     C     0.0901     0.7645     0.1403
A_3     C     0.4931     0.4949     0.4902
A_2     C     0.0143     0.6789     0.3966
A_3     C     0.6729     0.3167     0.5892
A_3     C     0.2904     0.7253     0.632
A_1     C     0.8935     0.914     0.3373
A_2     C     0.5604     0.7104     0.773
A_2     C     0.2281     0.7392     0.5593
A_3     C     0.1083     0.909     0.7201
A_2     C     0.0898     0.5637     0.2397
A_3     C     0.8305     0.3585     0.5688
A_3     C     0.7003     0.3471     0.1894
A_2     C     0.9344     0.4067     0.291
A_2     C     0.243     0.8594     0.674
A_3     C     0.7297     0.85     0.3932
A_0     C     0.9662     0.5803     0.5648
A_0     C     0.3389     0.1723     0.2212
A_0     C     0.1222     0.9428     0.229
A_0     C     0.4091     0.7188     0.9911
A_3     C     0.716     0.0732     0.6069
A_3     C     0.1566     0.6078     0.5065
A_2     C     0.5604     0.7165     0.1851
A_1     C     0.0701     0.5106     0.6725
A_1     C     0.7409     0.7641     0.1617
A_2     C     0.6447     0.5172     0.4454
A_2     C     0.0332     0.5225     0.194
A_2     C     0.9228     0.3757     0.399
A_0     C     0.6898     0.6359     0.3313
A_2     C     0.198     0.5915     0.1982
A_1     C     0.6171     0.0974     0.6666
A_1     C     0.1936     0.5279     0.63
A_1     C     0.5049     0.3254     0.5882
A_1     C     0.4466     0.7354     0.3923
A_3     C     0.6756     0.1274     0.8068
A_1     C     0.1133     0.2322     0.2336
A_0     C     0.4903     0.0409     0.1577
A_2     C     0.7677     0.6993     0.2272
A_3     C     0.1479     0.7649     0.7186
A_3     C     0.6394     0.6371     0.7009
A_3     C     0.655     0.5205     0.6411
A_1     C     0.633     0.7849     0.8216
A_2     C     0.3033     0.6209     0.2746
A_3     C     0.8176     0.2576     0.712
A_0     C     0.1758     0.5674     0.1313
A_3     C     0.72     0.5158     0.3036
A_3     C     0.391     0.822     0.7367
A_1     C     0.2839     0.3896     0.1009
A_2     C     0.1809     0.4503     0.8985
A_2     C     0.0629     0.229     0.1729
A_2     C     0.3197     0.3048     0.5281
A_2     C     0.4259     0.1039     0.7737
A_3     C     0.5795     0.3705     0.6696
A_2     C     0.5597     0.6179     0.2801
A_3     C     0.1531     0.9485     0.815
A_0     C     0.8132     0.4937     0.4152
A_0     C     0.6188     0.6098     0.3904
A_2     C     0.5131     0.7746     0.4816
A_3     C     0.5934     0.924     0.8528
A_3     C     0.0794     0.4317     0.9195
A_1     C     0.567     0.0819     0.9522
A_1     C     0.64     0.1641     0.7001
A_0     C     0.1451     0.1393     0.5434
A_3     C     0.2208     0.2136     0.8037
A_3     C     0.0032     0.6455     0.2921
A_3     C     0.619     0.5057     0.6151
A_0     C     0.3414     0.6689     0.8962
A_1     C     0.0708     0.0419     0.4728
A_3     C     0.5141     0.6916     0.9513
A_3     C     0.7435     0.3857     0.6877
A_2     C     0.7577     0.5531     0.7406
A_1     C     0.7314     0.9475     0.7803
A_1     C     0.3906     0.0111     0.47
A_1     C     0.22     0.752     0.5258
A_1     C     0.2046     0.1714     0.4787
A_2     C     0.3907     0.4284     0.2044
A_2     C     0.4847     0.4236     0.6464
A_2     C     0.8571     0.2376     0.3755
A_1     C     0.2603     0.8787     0.6317
A_3     C     0.5674     0.4161     0.315
A_2     C     0.757     0.1373     0.1728
A_2     C     0.2812     0.1862     0.6362
A_3     C     0.8817     0.5553     0.4912
A_0     C     0.7405     0.3696     0.4544
A_1     C     0.6554     0.9906     0.0491
A_2     C     0.2893     0.4897     0.1457
A_0     C     0.6452     0.6102     0.0729
A_3     C     0.9391     0.4224     0.3138
A_3     C     0.509     0.7653     0.7968
A_1     C     0.747     0.3126     0.4028
A_2     C     0.0859     0.5353     0.103
A_3     C     0.233     0.2646     0.6227
A_1     C     0.9675     0.7352     0.5465
A_0     C     0.8775     0.6158     0.9681
A_1     C     0.2079     0.5693     0.19
A_0     C     0.8551     0.939     0.8773
A_1     C     0.7031     0.3459     0.3645
A_0     C     0.6194     0.5687     0.1262
A_1     C     0.0152     0.9565     0.8689
A_1     C     0.5194     0.0612     0.2028
A_1     C     0.8828     0.2306     0.4657
A_0     C     0.2928     0.78     0.9038
A_3     C     0.3143     0.2262     0.6882
A_2     C     0.9417     0.9588     0.9316
A_0     C     0.5636     0.1053     0.9229
A_2     C     0.5032     0.7493     0.0577
A_3     C     0.1585     0.9761     0.1406
A_3     C     0.2143     0.0802     0.28
A_0     C     0.7923     0.7285     0.404
A_0     C     0.5434     0.3943     0.3785
A_3     C     0.4252     0.5507     0.449
A_1     C     0.8609     0.1813     0.3434
A_1     C     0.0748     0.9243     0.4233
A_2     C     0.3045     0.657     0.3262
A_1     C     0.4902     0.2832     0.9607
A_3     C     0.1064     0.3941     0.5991
A_0     C     0.3039     0.4356     0.6529
A_2     C     0.6956     0.6791     0.1056
A_0     C     0.7208     0.8421     0.8232
A_2     C     0.5713     0.5719     0.9464
A_0     C     0.9764     0.0066     0.7068
A_2     C     0.7109     0.772     0.384
A_3     C     0.0152     0.4424     0.3386
A_0     C     0.719     0.8878     0.0655
A_2     C     0.208     0.9916     0.7865
A_1     C     0.7501     0.6402     0.6719
A_1     C     0.2686     0.0297     0.0416
A_1     C     0.2957     0.8882     0.8324
A_2     C     0.1105     0.574     0.2104
A_0     C     0.2426     0.3979     0.6507
A_3     C     0.2572     0.8889     0.3658
A_0     C     0.1544     0.3498     0.0883
A_2     C     0.6754     0.5864     0.8696
A_2     C     0.9646     0.2484     0.1655
A_1     C     0.7177     0.1863     0.3537
A_3     C     0.3689     0.2859     0.0967
A_1     C     0.331     0.0852     0.3511
A_1     C     0.4263     0.3053     0.4635
A_3     C     0.8915     0.2232     0.2427
A_1     C     0.9857     0.428     0.3469
A_2     C     0.9871     0.4265     0.981
A_0     C     0.4307     0.3677     0.4297
A_3     C     0.0348     0.9497     0.4892
A_1     C     0.2986     0.611     0.0222
A_2     C     0.7851     0.4041     0.9808
A_1     C     0.6414     0.433     0.5956
A_3     C     0.2631     0.414     0.9279
A_2     C     0.0827     0.6476     0.0684
A_2     C     0.4887     0.7494     0.2968
A_3     C     0.6766     0.0825     0.8239
A_1     C     0.3905     0.5733     0.4867
A_0     C     0.7434     0.1678     0.5447
A_0     C     0.0934     0.5969     0.5189
A_0     C     0.1631     0.8775     0.426
A_2     C     0.0418     0.1057     0.9971
A_3     C     0.3102     0.0687     0.3666
A_0     C     0.8347     0.5652     0.1097
A_3     C     0.8126     0.4692     0.0075
A_0     C     0.9338     0.7248     0.666
A_1     C     0.2151     0.9224     0.6887
A_0     C     0.3872     0.4582     0.6283
A_0     C     0.554     0.8206     0.5479
A_0     C     0.5755     0.2139     0.6013
A_2     C     0.0155     0.8438     0.1652
A_3     C     0.6445     0.418     0.483
A_3     C     0.3485     0.4245     0.1945
A_0     C     0.3695     0.0668     0.9704
A_1     C     0.9123     0.1743     0.6292
A_0     C     0.8995     0.0157     0.4487
A_0     C     0.4814     0.15     0.5839
A_1     C     0.0612     0.0106     0.6594
A_3     C     0.0562     0.7335     0.4919
A_0     C     0.6195     0.57     0.1785
A_0     C     0.1208     0.7001     0.987
A_0     C     0.8032     0.4879     0.2179
A_2     C     0.8605     0.657     0.1756
A_2     C     0.0785     0.1768     0.6271
A_3     C     0.9729     0.8307     0.7105
A_1     C     0.5608     0.5121     0.8948
A_2     C     0.5932     0.6184     0.0247
A_3     C     0.6212     0.9855     0.5558
A_0     C     0.7535     0.4834     0.1236
A_3     C     0.4358     0.1675     0.1867
A_0     C     0.5706     0.9429     0.1288
A_0     C     0.5636     0.2938     0.8591
A_0     C     0.3233     0.7244     0.4536
A_3     C     0.1569     0.5509     0.6762
A_0     C     0.5332     0.6138     0.2396
A_0     C     0.1908     0.8015     0.8996
A_2     C     0.3856     0.0278     0.7557
A_0     C     0.9638     0.6569     0.404
A_1     C     0.0571     0.0712     0.8714
A_0     C     0.5716     0.3991     0.7903
A_0     C     0.509     0.5189     0.6081
A_3     C     0.6885     0.8599     0.4017
A_3     C     0.9428     0.9162     0.4677
A_3     C     0.7175     0.7359     0.8128
A_2     C     0.1399     0.8612     0.9754
A_1     C     0.276     0.5276     0.7238
A_2     C     0.9068     0.8764     0.1013
A_3     C     0.9648     0.5028     0.0507
A_0     C     0.1077     0.181     0.808
A_3     C     0.4782     0.7851     0.1566
A_1     C     0.7082     0.4376     0.1959
A_1     C     0.6773     0.7475     0.8108
A_2     C     0.3813     0.4794     0.4619
A_3     C     0.913     0.3449     0.4252
A_0     C     0.8435     0.6822     0.4945
A_0     C     0.0028     0.3917     0.8321
A_0     C     0.7949     0.9751     0.5762
A_1     C     0.3536     0.2967     0.1563
A_2     C     0.0403     0.956     0.0133
A_2     C     0.2087     0.2937     0.1753
A_1     C     0.9649     0.6971     0.0171
A_0     C     0.8714     0.9407     0.7425
A_0     C     0.7228     0.7103     0.0867
A_2     C     0.604     0.8629     0.4447
A_1     C     0.7804     0.132     0.9869
A_2     C     0.9698     0.7282     0.936
A_1     C     0.8382     0.3767     0.8223
A_1     C     0.6474     0.3373     0.4382
A_1     C     0.0513     0.4814     0.9863
A_2     C     0.8811     0.4483     0.6902
A_1     C     0.1185     0.2458     0.0003
A_3     C     0.0365     0.003     0.9827
A_3     C     0.6122     0.4216     0.9327
A_2     C     0.7193     0.6425     0.367
A_3     C     0.2606     0.4352     0.2965
A_2     C     0.7369     0.705     0.5311
A_0     C     0.6491     0.0766     0.3878
A_2     C     0.9804     0.5454     0.772
A_0     C     0.1311     0.4938     0.6156
A_1     C     0.0042     0.453     0.8866
A_3     C     0.3951     0.3129     0.6626
A_0     C     0.5263     0.606     0.3955
A_2     C     0.7111     0.0874     0.129
A_2     C     0.8989     0.4043     0.7847
A_0     C     0.6706     0.6791     0.8398
A_0     C     0.0514     0.9459     0.034
A_1     C     0.9477     0.3215     0.3649
A_3     C     0.6715     0.8163     0.3058
A_0     C     0.1973     0.3168     0.6268
A_0     C     0.1539     0.3097     0.5949
A_2     C     0.9653     0.498     0.1498
A_0     C     0.9044     0.4589     0.6329
A_3     C     0.5415     0.0604     0.8623
A_2     C     0.2219     0.4678     0.3336
A_0     C     0.0487     0.4995     0.7326
A_2     C     0.0498     0.2221     0.0654
A_3     C     0.8974     0.6715     0.2213
A_1     C     0.1395     0.5747     0.2971
A_2     C     0.4965     0.2378     0.0384
A_3     C     0.7842     0.717     0.165
A_3     C     0.6544     0.6447     0.8156
A_1     C     0.0867     0.1042     0.8088
A_0     C     0.2578     0.7832     0.4009
A_2     C     0.63     0.1785     0.7539
A_1     C     0.6476     0.2629     0.9838
A_3     C     0.441     0.6184     0.5704
A_1     C     0.9773     0.0888     0.555
A_3     C     0.12     0.5721     0.692
A_2     C     0.1073     0.4736     0.3864
A_3     C     0.9139     0.5113     0.0127
A_1     C     0.8796     0.3901     0.3432
A_2     C     0.4176     0.2261     0.9884
A_0     C     0.6701     0.4126     0.3488
A_2     C     0.4852     0.6673     0.9992
A_3     C     0.3677     0.9647     0.6996
A_2     C     0.9935     0.1076     0.5068
A_1     C     0.7459     0.9866     0.0005
A_0     C     0.8633     0.082     0.4055
A_2     C     0.2896     0.1904     0.5302
A_1     C     0.5861     0.017     0.832
A_0     C     0.16     0.6497     0.9219
A_1     C     0.7495     0.6033     0.9254
A_3     C     0.344     0.401     0.1541
A_2     C     0.6476     0.3246     0.3678
A_2     C     0.6366     0.6074     0.1584
A_2     C     0.3186     0.9053     0.0363
A_0     C     0.5247     0.6354     0.6752
A_2     C     0.2215     0.9801     0.1469
A_2     C     0.2954     0.632     0.1551
A_0     C     0.3966     0.0755     0.3325
A_1     C     0.5415     0.9652     0.4421
A_0     C     0.4633     0.9766     0.1195
A_0     C     0.6413     0.2728     0.1036
A_2     C     0.1808     0.1063     0.6273
A_2     C     0.3676     0.6166     0.5474
A_3     C     0.2977     0.7175     0.9439
A_2     C     0.1319     0.3821     0.5606
A_3     C     0.5505     0.9041     0.8399
A_1     C     0.0987     0.4572     0.8166
A_3     C     0.1239     0.2399     0.3878
A_1     C     0.2863     0.257     0.8204
A_0     C     0.6793     0.2765     0.872
A_1     C     0.8163     0.9712     0.5386
A_2     C     0.4165     0.1796     0.2865
A_1     C     0.744     0.6642     0.4498
A_2     C     0.0895     0.0078     0.1908
A_3     C     0.76     0.2171     0.3998
A_3     C     0.0774     0.7688     0.1341
A_1     C     0.3129     0.8666     0.9015
A_3     C     0.3432     0.5813     0.0238
A_3     C     0.1776     0.7599     0.834
A_2     C     0.5254     0.357     0.6664
A_2     C     0.6508     0.5574     0.2905
A_2     C     0.6288     0.3521     0.9097
A_1     C     0.5809     0.956     0.903
A_0     C     0.4575     0.006     0.6431
A_0     C     0.1976     0.3074     0.7021
A_2     C     0.5482     0.7683     0.6473
A_3     C     0.0967     0.5347     0.6926
A_3     C     0.3116     0.8356     0.6095
A_2     C     0.2079     0.4827     0.0728
A_0     C     0.2892     0.6721     0.5837
A_2     C     0.9133     0.4032     0.7805
A_0     C     0.9888     0.3228     0.939
A_2     C     0.7474     0.8425     0.3363
A_0     C     0.9485     0.9373     0.8698
A_2     C     0.2724     0.0806     0.2673
A_2     C     0.5575     0.9812     0.0697
A_1     C     0.4756     0.2096     0.4091
A_1     C     0.9479     0.8659     0.9706
A_2     C     0.6159     0.8812     0.5079
A_3     C     0.0252     0.5009     0.866
A_1     C     0.4812     0.1826     0.4906
A_3     C     0.8206     0.3483     0.9846
A_0     C     0.1448     0.8861     0.9282
A_0     C     0.886     0.4323     0.9511
A_3     C     0.2388     0.6279     0.6628
A_0     C     0.8874     0.0412     0.3709
A_0     C     0.4355     0.652     0.2143
A_1     C     0.3289     0.2459     0.8977
A_3     C     0.0687     0.9619     0.6511
A_3     C     0.5791     0.7804     0.1571
A_3     C     0.0093     0.7661     0.1838
A_2     C     0.7955     0.4746     0.8823
A_3     C     0.6119     0.2684     0.2068
A_1     C     0.9987     0.526     0.6631
A_1     C     0.9939     0.2117     0.1216
A_1     C     0.1687     0.4909     0.6324
A_3     C     0.2442     0.5773     0.0387
A_2     C     0.5577     0.5839     0.5137
A_1     C     0.8841     0.1047     0.8748
A_2     C     0.8526     0.0528     0.5311
A_2     C     0.708     0.8563     0.5586
A_0     C     0.8405     0.272     0.1546
A_2     C     0.771     0.8369     0.9466
A_3     C     0.5984     0.4873     0.5412
A_0     C     0.6737     0.5959     0.1357
A_1     C     0.5854     0.559     0.1879
A_3     C     0.059     0.7563     0.064
A_3     C     0.1295     0.1431     0.9969
A_0     C     0.2501     0.7258     0.1945
A_2     C     0.5186     0.9363     0.7792
A_2     C     0.6715     0.4115     0.6361
A_3     C     0.024     0.4505     0.0249
A_1     C     0.6708     0.8798     0.4688
A_1     C     0.3773     0.6127     0.3914
A_2     C     0.2445     0.3937     0.8594
A_3     C     0.3033     0.3711     0.6148
A_1     C     0.8099     0.9749     0.1527
A_2     C     0.8002     0.0221     0.098
A_1     C     0.2981     0.4558     0.8451
A_3     C     0.4995     0.4124     0.5299
A_1     C     0.4382     0.797     0.1206
A_3     C     0.6299     0.2321     0.7356
A_0     C     0.1056     0.7118     0.8881
A_3     C     0.2944     0.2108     0.2487
A_0     C     0.4024     0.4341     0.608
A_2     C     0.6743     0.0488     0.358
A_0     C     0.1513     0.2541     0.2087
A_1     C     0.4157     0.2497     0.5919
A_1     C     0.0079     0.5711     0.4053
A_0     C     0.5877     0.3041     0.4119
A_2     C     0.2024     0.5187     0.8694
A_1     C     0.0871     0.4611     0.8775
A_1     C     0.7213     0.3607     0.4042
A_3     C     0.6565     0.6645     0.7673
A_3     C     0.5781     0.5377     0.2528
A_3     C     0.6242     0.8497     0.2636
A_1     C     0.3961     0.4575     0.4176
A_3     C     0.3884     0.817     0.4094
A_3     C     0.4391     0.1551     0.2948
A_0     C     0.1754     0.3143     0.8616
A_0     C     0.8382     0.9425     0.5749
A_2     C     0.139     0.1748     0.8077
A_2     C     0.6173     0.5456     0.3964
A_0     C     0.5775     0.2748     0.4336
A_0     C     0.711     0.6635     0.3534
A_3     C     0.8635     0.5127     0.6393
A_2     C     0.5586     0.0405     0.6683
A_2     C     0.9626     0.1451     0.5454
A_1     C     0.3062     0.2318     0.4173
A_2     C     0.7764     0.5355     0.8319
A_2     C     0.8106     0.1909     0.1405
A_0     C     0.6971     0.5808     0.6295
A_0     C     0.0449     0.2904     0.7576
A_1     C     0.2358     0.6189     0.4688
A_3     C     0.7833     0.1201     0.612
A_0     C     0.461     0.2444     0.1713
A_0     C     0.5071     0.694     0.1981
A_0     C     0.9399     0.3378     0.4999
A_2     C     0.3752     0.781     0.556
A_0     C     0.1166     0.8216     0.9074
A_3     C     0.7858     0.524     0.9405
A_0     C     0.51     0.0063     0.5165
A_0     C     0.6211     0.3217     0.1316
A_0     C     0.7008     0.7195     0.6134
A_1     C     0.3858     0.7706     0.1805
A_1     C     0.4024     0.2295     0.5301
A_2     C     0.3884     0.0488     0.5322
A_1     C     0.3456     0.5563     0.7144
A_3     C     0.2112     0.0302     0.617
A_0     C     0.3734     0.0739     0.14
A_0     C     0.8608     0.2443     0.9273
A_1     C     0.3908     0.9665     0.1975
A_2     C     0.4829     0.3153     0.706
A_3     C     0.647     0.2161     0.2688
A_2     C     0.8704     0.0935     0.962
A_1     C     0.7083     0.0632     0.8998
A_3     C     0.6179     0.9357     0.7397
A_2     C     0.5099     0.0651     0.4535
A_0     C     0.775     0.4441     0.8267
A_0     C     0.6899     0.7982     0.7566
A_0     C     0.1678     0.6887     0.2555
A_3     C     0.7749     0.6262     0.2804
A_2     C     0.1219     0.2638     0.2336
A_2     C     0.5305     0.9201     0.2948
A_2     C     0.8486     0.6247     0.485
A_3     C     0.045     0.3956     0.4753
A_1     C     0.1946     0.4265     0.7526
A_2     C     0.7797     0.6589     0.005
A_3     C     0.7066     0.536     0.0176
A_3     C     0.3915     0.8846     0.7053
A_0     C     0.6927     0.9992     0.8704
A_3     C     0.6042     0.4986     0.1042
A_1     C     0.991     0.8485     0.9717
A_0     C     0.2012     0.6635     0.0775
A_2     C     0.9617     0.3613     0.7914
A_2     C     0.3111     0.9357     0.3954
A_2     C     0.7834     0.9285     0.714
A_0     C     0.3201     0.5686     0.755
A_3     C     0.0392     0.519     0.5602
A_3     C     0.396     0.8276     0.9244
A_0     C     0.0102     0.3378     0.1492
A_3     C     0.0048     0.0378     0.0929
A_2     C     0.5056     0.7097     0.967
A_2     C     0.0086     0.3423     0.8727
A_1     C     0.1247     0.3674     0.3645
A_1     C     0.1601     0.1594     0.2602
A_0     C     0.5267     0.2128     0.197
A_3     C     0.9544     0.3526     0.5892
A_3     C     0.845     0.1594     0.0492
A_2     C     0.2379     0.6504     0.1763
A_3     C     0.0084     0.2231     0.1755
A_2     C     0.5501     0.4172     0.5766
A_1     C     0.6674     0.0584     0.6367
A_1     C     0.5225     0.3943     0.8067
A_2     C     0.6348     0.4852     0.0282
A_1     C     0.93     0.4248     0.85
A_2     C     0.5676     0.1172     0.5756
A_1     C     0.5069     0.3266     0.418
A_3     C     0.7925     0.0817     0.4734
A_3     C     0.6073     0.0111     0.0702
A_3     C     0.064     0.4378     0.7812
A_3     C     0.4747     0.214     0.2432
A_2     C     0.4277     0.1772     0.0536
A_2     C     0.215     0.2463     0.6027
A_1     C     0.5503     0.9575     0.516
A_2     C     0.2852     0.5922     0.4537
A_1     C     0.3529     0.3299     0.9989
A_3     C     0.6095     0.2078     0.4497
A_1     C     0.2482     0.7961     0.1367
A_3     C     0.5666     0.6897     0.0673
A_2     C     0.4225     0.5361     0.095
A_3     C     0.8123     0.879     0.8623
A_3     C     0.0706     0.6337     0.8236
A_3     C     0.8484     0.7113     0.8384
A_3     C     0.4102     0.6094     0.5369
A_1     C     0.8402     0.4525     0.9076
A_0     C     0.2981     0.4404     0.9999
A_1     C     0.9722     0.9615     0.2384
A_1     C     0.1354     0.1903     0.9383
A_1     C     0.8146     0.8143     0.9063
A_2     C     0.2618     0.7153     0.2479
A_3     C     0.2624     0.1716     0.7158
A_0     C     0.618     0.4539     0.1302
A_3     C     0.7686     0.8987     0.9349
A_1     C     0.4798     0.1178     0.8187
A_0     C     0.1111     0.5553     0.2488
A_3     C     0.3607     0.7751     0.1711
A_2     C     0.6154     0.5572     0.5186
A_0     C     0.3464     0.0145     0.4665
A_3     C     0.2244     0.3356     0.5981
A_1     C     0.2027     0.8843     0.2814
A_3     C     0.0023     0.664     0.0481
A_2     C     0.2992     0.9489     0.1062
A_0     C     0.238     0.0906     0.2396
A_0     C     0.4207     0.6839     0.653
A_2     C     0.6128     0.9036     0.7314
A_3     C     0.2501     0.462     0.9129
A_0     C     0.6826     0.23     0.6077
A_0     C     0.9088     0.8052     0.0898
A_0     C     0.7564     0.8743     0.5825
A_2     C     0.8247     0.2845     0.3949
A_0     C     0.714     0.0182     0.1081
A_3     C     0.2875     0.4996     0.5009
A_1     C     0.312     0.6774     0.7546
A_3     C     0.7826     0.0667     0.9069
A_3     C     0.7617     0.5976     0.3374
A_2     C     0.6706     0.7683     0.3875
A_0     C     0.9988     0.9081     0.0562
A_3     C     0.7381     0.8856     0.6207
A_1     C     0.5933     0.6864     0.669
A_1     C     0.6705     0.8353     0.0147
A_0     C     0.6932     0.3894     0.7357
A_3     C     0.4008     0.6933     0.858
A_3     C     0.1991     0.3556     0.4744
A_0     C     0.6539     0.2299     0.908
A_3     C     0.2046     0.8668     0.4659
A_1     C     0.7283     0.4729     0.5328
A_1     C     0.3818     0.5492     0.7698
A_2     C     0.5771     0.2687     0.7889
A_2     C     0.6206     0.6072     0.0467
A_0     C     0.1036     0.2992     0.6343
A_0     C     0.1578     0.2321     0.0668
A_1     C     0.9442     0.5597     0.4094
A_2     C     0.7634     0.9663     0.1119
A_2     C     0.1776     0.7041     0.2722
A_0     C     0.6934     0.2808     0.0806
A_2     C     0.4274     0.1099     0.8321
A_3     C     0.7911     0.9064     0.6366
A_2     C     0.6274     0.7938     0.6775
A_0     C     0.9713     0.0079     0.3019
A_1     C     0.517     0.2939     0.9937
A_0     C     0.4838     0.7199     0.4975
A_0     C     0.7166     0.2022     0.4963
A_3     C     0.4966     0.6908     0.3287
A_0     C     0.9175     0.0027     0.4454
A_2     C     0.6445     0.74     0.5103
A_3     C     0.4695     0.9381     0.8674
A_2     C     0.496     0.2012     0.1558
A_2     C     0.3137     0.2557     0.8676
A_2     C     0.4975     0.0506     0.3769
A_3     C     0.0135     0.7953     0.0286
A_0     C     0.2572     0.9607     0.4893
A_3     C     0.0303     0.0191     0.8451
A_3     C     0.6408     0.7004     0.5429
A_1     C     0.4806     0.7807     0.942
A_1     C     0.0119     0.3426     0.7638
A_0     C     0.1059     0.9264     0.0031
A_3     C     0.6206     0.5356     0.876
A_3     C     0.1548     0.812     0.669
A_0     C     0.2297     0.1799     0.7372
A_1     C     0.091     0.9953     0.2878
A_1     C     0.3859     0.0206     0.036
A_0     C     0.2622     0.3527     0.2576
A_2     C     0.25     0.5966     0.7334
A_3     C     0.8712     0.2941     0.1468
A_2     C     0.2416     0.0635     0.1147
A_1     C     0.1397     0.0106     0.069
A_3     C     0.555     0.8746     0.667
A_0     C     0.9892     0.6738     0.5986
A_3     C     0.1907     0.8892     0.2291
A_2     C     0.446     0.2426     0.1338
A_1     C     0.9802     0.8477     0.3047
A_2     C     0.9714     0.9152     0.7911
A_3     C     0.4496     0.6853     0.7533
A_0     C     0.1151     0.519     0.3528
A_1     C     0.3218     0.2809     0.2963
A_3     C     0.7349     0.2188     0.345
A_3     C     0.3712     0.7436     0.7974
A_2     C     0.5734     0.13     0.1668
A_3     C     0.5351     0.2409     0.059
A_0     C     0.8569     0.4495     0.3609
A_0     C     0.0841     0.9126     0.0494
A_1     C     0.6153     0.433     0.9525
A_2     C     0.4484     0.9155     0.338
A_0     C     0.8542     0.9414     0.3517
A_1     C     0.4939     0.6618     0.667
A_3     C     0.5196     0.5753     0.0473
A_2     C     0.193     0.1911     0.7872
A_1     C     0.1754     0.7718     0.6963
A_3     C     0.4187     0.5742     0.1768
A_1     C     0.4003     0.0133     0.7356
A_2     C     0.6421     0.3108     0.5952
A_0     C     0.6131     0.9031     0.7467
A_3     C     0.6526     0.9653     0.3832
A_0     C     0.5036     0.3912     0.8237
A_1     C     0.0738     0.6864     0.9421
A_0     C     0.2866     0.7717     0.4125
A_3     C     0.216     0.0365     0.9988
A_1     C     0.4999     0.5608     0.5144
A_1     C     0.6326     0.6735     0.1791
A_2     C     0.3021     0.3077     0.9978
A_2     C     0.7351     0.0407     0.1153
A_3     C     0.8332     0.2994     0.5158
A_0     C     0.8391     0.6475     0.0426
A_0     C     0.5114     0.7423     0.4171
A_3     C     0.3502     0.3858     0.2684
A_3     C     0.2814     0.3293     0.4312
A_1     C     0.3635     0.4121     0.1613
A_2     C     0.5472     0.4576     0.5278
A_1     C     0.9143     0.2406     0.6004
A_1     C     0.5898     0.132     0.5297
A_3     C     0.115     0.1086     0.7792
A_0     C     0.2335     0.4818     0.6915
A_0     C     0.2159     0.5772     0.394
A_3     C     0.7911     0.7675     0.2889
A_1     C     0.147     0.2715     0.5006
A_1     C     0.1355     0.6129     0.6305
A_2     C     0.5495     0.357     0.8828
A_1     C     0.9817     0.8766     0.1822
A_3     C     0.9971     0.8681     0.6802
A_3     C     0.6492     0.3117     0.5988
A_1     C     0.6832     0.583     0.1227
A_1     C     0.5482     0.3335     0.8279
A_0     C     0.3344     0.8189     0.5593
A_2     C     0.9633     0.9174     0.1619
A_0     C     0.7696     0.1107     0.7554
A_1     C     0.4774     0.3767     0.4004
A_2     C     0.7877     0.966     0.5005
A_1     C     0.4728     0.5243     0.3707
A_2     C     0.7937     0.2878     0.0
A_1     C     0.3807     0.2823     0.8935
A_1     C     0.4513     0.7323     0.6601
A_1     C     0.4438     0.1396     0.5081
A_1     C     0.692     0.2481     0.3596
A_3     C     0.4096     0.4391     0.6551
A_2     C     0.0315     0.1037     0.6727
A_0     C     0.6728     0.5278     0.8383
A_1     C     0.0925     0.8602     0.5952
A_3     C     0.7358     0.2368     0.9739
A_1     C     0.6228     0.8849     0.7247
A_0     C     0.9452     0.7019     0.0974
A_0     C     0.266     0.7817     0.7706
A_1     C     0.0301     0.415     0.1417
A_3     C     0.5965     0.5899     0.0066
A_1     C     0.5018     0.1912     0.2938
A_2     C     0.4826     0.9438     0.1002
A_3     C     0.783     0.1065     0.8166
A_3     C     0.2575     0.0113     0.4944
A_1     C     0.0093     0.3083     0.7685
A_0     C     0.2151     0.0144     0.5411
A_1     C     0.2127     0.8786     0.1947
A_0     C     0.3634     0.6084     0.245
A_3     C     0.4888     0.1895     0.3338
A_1     C     0.3841     0.244     0.3204
A_0     C     0.9637     0.6021     0.2575
A_1     C     0.3513     0.4329     0.1008
A_3     C     0.1254     0.674     0.1583
A_0     C     0.2542     0.9202     0.7945
A_2     C     0.9262     0.0447     0.694
A_2     C     0.8539     0.1029     0.2297
A_3     C     0.1375     0.227     0.4796
A_0     C     0.4515     0.0069     0.9871
A_0     C     0.5094     0.5836     0.5813
A_3     C     0.8374     0.8092     0.0023
A_2     C     0.473     0.2612     0.891
A_3     C     0.8421     0.0659     0.6473
A_3     C     0.8516     0.7029     0.4004
A_3     C     0.4687     0.7195     0.7864
A_0     C     0.2832     0.2225     0.2841
A_0     C     0.8686     0.8929     0.3023
A_2     C     0.4134     0.7774     0.3264
A_0     C     0.4036     0.9178     0.2937
A_3     C     0.1837     0.1718     0.2305
A_2     C     0.1643     0.938     0.1082
A_0     C     0.1594     0.5901     0.4053
A_1     C     0.2669     0.8092     0.2817
A_0     C     0.2819     0.2998     0.2912
A_3     C     0.1169     0.2616     0.5576
A_3     C     0.2666     0.9649     0.3648
A_0     C     0.9732     0.0689     0.0144
A_1     C     0.9203     0.209     0.1205
A_0     C     0.549     0.9352     0.2954
A_2     C     0.6356     0.3635     0.018
A_3     C     0.5794     0.8652     0.4374
A_1     C     0.2977     0.1825     0.5003
A_1     C     0.4713     0.2424     0.9105
A_1     C     0.5666     0.1286     0.9808
A_3     C     0.7058     0.1608     0.1655
A_2     C     0.7644     0.811     0.5021
A_2     C     0.3713     0.4259     0.1546
A_2     C     0.7357     0.354     0.1626
A_0     C     0.1284     0.5271     0.7336
A_2     C     0.5233     0.7895     0.0863
A_2     C     0.9309     0.3927     0.6004
A_3     C     0.3852     0.4926     0.9053
A_0     C     0.7788     0.6328     0.343
A_0     C     0.4692     0.2899     0.6464
A_1     C     0.4464     0.774     0.2288
A_1     C     0.5344     0.7269     0.4874
A_2     C     0.8847     0.2879     0.5376
A_2     C     0.469     0.7734     0.6175
A_2     C     0.0825     0.4554     0.1721
A_0     C     0.3487     0.5532     0.4046
A_3     C     0.404     0.987     0.3314
A_1     C     0.7346     0.2593     0.549
A_2     C     0.0509     0.0326     0.5417
A_1     C     0.0373     0.592     0.0013
A_1     C     0.475     0.2652     0.7603
A_1     C     0.8982     0.2146     0.5349
A_1     C     0.8977     0.2922     0.6554
A_2     C     0.4037     0.7079     0.9513
A_1     C     0.7374     0.7758     0.8252
A_2     C     0.7284     0.6944     0.7397
A_0     C     0.6434     0.1598     0.2583
A_2     C     0.9071     0.4333     0.2821
A_2     C     0.3501     0.9303     0.1489
A_1     C     0.0439     0.8011     0.3984
A_1     C     0.8253     0.368     0.3965
A_0     C     0.9638     0.8049     0.4496
A_0     C     0.028     0.0559     0.4632
A_0     C     0.9762     0.1028     0.0357
A_2     C     0.3046     0.7762     0.3598
A_3     C     0.0258     0.8426     0.905
A_3     C     0.1142     0.6555     0.7457
A_0     C     0.2083     0.3681     0.81
A_3     C     0.1873     0.9699     0.6595
A_1     C     0.1808     0.3717     0.7118
A_0     C     0.9492     0.7685     0.0856
A_0     C     0.8296     0.4796     0.9016
A_0     C     0.6754     0.6017     0.1949
A_3     C     0.1881     0.7382     0.4222
A_0     C     0.125     0.179     0.8244
A_0     C     0.9842     0.5647     0.7662
A_3     C     0.463     0.8199     0.2481
A_1     C     0.5809     0.9034     0.8547
A_2     C     0.0787     0.2587     0.2995
A_3     C     0.3031     0.1897     0.8177
A_0     C     0.0158     0.0735     0.2754
A_1     C     0.1412     0.6426     0.034
A_0     C     0.973     0.1706     0.4069
A_0     C     0.9254     0.9513     0.4958
A_3     C     0.6692     0.7065     0.5168
A_2     C     0.0288     0.9823     0.7967
A_2     C     0.6886     0.585     0.1622
A_3     C     0.7661     0.946     0.4746
A_0     C     0.6886     0.8583     0.6729
A_0     C     0.5941     0.0537     0.6413
A_3     C     0.1185     0.3063     0.77
A_3     C     0.006     0.7024     0.6669
A_0     C     0.6422     0.7218     0.1954
A_0     C     0.7217     0.3101     0.3775
A_3     C     0.541     0.5762     0.7629
A_3     C     0.7169     0.4902     0.6747
A_2     C     0.5074     0.097     0.3033
A_2     C     0.0435     0.5137     0.0718
A_0     C     0.8721     0.4858     0.5147
A_3     C     0.8482     0.0187     0.6092
A_3     C     0.0523     0.5793     0.7108
A_3     C     0.6173     0.1336     0.8347
A_3     C     0.4697     0.9398     0.432
A_0     C     0.7769     0.4408     0.1771
A_2     C     0.7212     0.972     0.3392
A_0     C     0.7279     0.8201     0.9936
A_1     C     0.2853     0.6772     0.9397
A_2     C     0.0963     0.2191     0.8822
A_0     C     0.1691     0.4034     0.9929
A_0     C     0.4793     0.5156     0.3302
A_2     C     0.1922     0.2455     0.7557
A_3     C     0.4632     0.2281     0.7566
A_1     C     0.2784     0.8734     0.8309
A_2     C     0.9004     0.845     0.6955
A_0     C     0.4945     0.2758     0.273
A_1     C     0.7963     0.0326     0.4905
A_0     C     0.0889     0.3025     0.9173
A_2     C     0.7258     0.1818     0.6897
A_2     C     0.0453     0.3786     0.7864
A_0     C     0.1325     0.7259     0.8858
A_3     C     0.0345     0.1718     0.631
A_1     C     0.5404     0.8751     0.1292
A_3     C     0.7543     0.8463     0.8677
A_0     C     0.9279     0.4367     0.7634
A_2     C     0.8856     0.7805     0.1154
A_1     C     0.6595     0.8169     0.3825
A_3     C     0.687     0.1839     0.8416
A_2     C     0.8361     0.6929     0.9217
A_2     C     0.3776     0.1925     0.7025
A_1     C     0.9887     0.5938     0.4829
A_1     C     0.5846     0.0083     0.9692
A_1     C     0.0495     0.5284     0.4098
A_0     C     0.0555     0.8391     0.0579
A_3     C     0.3209     0.7212     0.2997
A_0     C     0.2312     0.0492     0.8322
A_0     C     0.7504     0.0644     0.1923
A_0     C     0.4327     0.2507     0.9893
A_3     C     0.0247     0.862     0.9762
A_0     C     0.964     0.1484     0.5876
A_2     C     0.5584     0.2653     0.4516
A_3     C     0.7146     0.0252     0.9936
A_3     C     0.1445     0.5674     0.7065
A_1     C     0.2751     0.8649     0.9388
A_2     C     0.0096     0.957     0.1592
A_2     C     0.4076     0.2669     0.7246
A_0     C     0.3858     0.7374     0.5572
A_0     C     0.6059     0.2822     0.1756
A_1     C     0.297     0.3304     0.5526
A_0     C     0.205     0.7468     0.5652
A_1     C     0.7294     0.8461     0.1011
A_3     C     0.0125     0.7243     0.933
A_1     C     0.2284     0.8347     0.1872
A_2     C     0.8966     0.9063     0.6754
A_3     C     0.216     0.6561     0.5462
A_2     C     0.4578     0.8875     0.748
A_3     C     0.16     0.1978     0.8424
A_2     C     0.7336     0.9479     0.7259
A_2     C     0.1934     0.9698     0.1555
A_1     C     0.1355     0.059     0.5912
A_3     C     0.6193     0.701     0.4078
A_2     C     0.6859     0.7697     0.0978
A_1     C     0.1744     0.6107     0.0996
A_0     C     0.0202     0.9337     0.8354
A_1     C     0.5667     0.7611     0.3792
A_1     C     0.6062     0.283     0.3424
A_3     C     0.6927     0.5153     0.7833
A_3     C     0.0664     0.02     0.7712
A_3     C     0.7212     0.7113     0.067
A_0     C     0.583     0.4141     0.8679
A_3     C     0.9343     0.2528     0.3309
A_1     C     0.6624     0.8649     0.5854
A_1     C     0.5635     0.5094     0.7753
A_2     C     0.4415     0.0588     0.0564
A_3     C     0.2151     0.9631     0.6836
A_2     C     0.4916     0.9204     0.0945
A_3     C     0.3909     0.6237     0.3684
A_3     C     0.3714     0.5474     0.5695
A_2     C     0.403     0.2795     0.8979
A_0     C     0.6524     0.6683     0.8812
A_0     C     0.0034     0.9038     0.6393
A_3     C     0.431     0.8275     0.7493
A_1     C     0.482     0.4756     0.7991
A_1     C     0.5451     0.9983     0.8199
A_3     C     0.3537     0.938     0.1496
A_1     C     0.0315     0.4689     0.4372
A_1     C     0.127     0.7113     0.1298
A_2     C     0.18     0.5198     0.7105
A_1     C     0.5582     0.4762     0.913
A_0     C     0.7154     0.6623     0.9234
A_2     C     0.1966     0.9864     0.5325
A_2     C     0.0001     0.4293     0.6259
A_2     C     0.9821     0.2137     0.5942
A_1     C     0.7014     0.3611     0.8917
A_3     C     0.6399     0.3985     0.9753
A_3     C     0.1053     0.1392     0.0216
A_3     C     0.6952     0.9414     0.4382
A_0     C     0.4298     0.8912     0.8213
A_1     C     0.2234     0.7763     0.8728
A_1     C     0.6183     0.7428     0.8093
A_3     C     0.0306     0.7416     0.9868
A_0     C     0.954     0.3915     0.3645
A_2     C     0.7028     0.2678     0.225
A_1     C     0.5206     0.0088     0.9623
A_1     C     0.0629     0.2164     0.2515
A_3     C     0.8944     0.5494     0.7001
A_0     C     0.4957     0.8688     0.1732
A_1     C     0.7861     0.5379     0.057
A_2     C     0.206     0.5439     0.4571
A_3     C     0.4033     0.7411     0.577
A_0     C     0.3836     0.5892     0.9783
A_3     C     0.0015     0.1355     0.5536
A_3     C     0.5331     0.0669     0.5444
A_3     C     0.213     0.431     0.5347
A_1     C     0.3915     0.798     0.6088
A_3     C     0.6144     0.8375     0.1504
A_1     C     0.0114     0.9804     0.2999
A_0     C     0.7994     0.0052     0.3039
A_1     C     0.5015     0.8322     0.0237
A_0     C     0.8779     0.0189     0.5436
A_2     C     0.8523     0.1464     0.4514
A_3     C     0.9292     0.1367     0.954
A_1     C     0.1293     0.4279     0.1607
A_3     C     0.3326     0.5956     0.5604
A_1     C     0.8337     0.0071     0.8887
A_3     C     0.211     0.703     0.8347
A_2     C     0.0395     0.5109     0.7827
A_2     C     0.108     0.3447     0.0681
A_2     C     0.282     0.6297     0.5962
A_3     C     0.6603     0.8856     0.7947
A_2     C     0.1417     0.0715     0.2519
A_2     C     0.3703     0.2342     0.3498
A_1     C     0.8448     0.2918     0.5707
A_3     C     0.1435     0.4832     0.2025
A_1     C     0.0859     0.5503     0.5626
A_3     C     0.0551     0.3971     0.6632
A_1     C     0.1379     0.5267     0.5339
A_3     C     0.6867     0.6726     0.5721
A_2     C     0.4098     0.1492     0.5426
A_2     C     0.2184     0.337     0.1724
A_3     C     0.9796     0.1282     0.0704
A_1     C     0.8487     0.1115     0.7392
A_2     C     0.3755     0.5075     0.744
A_3     C     0.2853     0.6712     0.5881
A_1     C     0.6006     0.3429     0.6421
A_1     C     0.7386     0.2595     0.2147
A_0     C     0.1195     0.7865     0.5036
A_1     C     0.1166     0.9968     0.0986
A_0     C     0.5354     0.8209     0.0505
A_0     C     0.8994     0.6058     0.4128
A_2     C     0.3274     0.2249     0.7107
A_1     C     0.6674     0.6416     0.855
A_2     C     0.1318     0.5324     0.9843
A_3     C     0.8027     0.612     0.5375
A_1     C     0.5379     0.9726     0.2467
A_2     C     0.0392     0.5028     0.9334
A_2     C     0.1712     0.9096     0.2764
A_0     C     0.4186     0.9772     0.4244
A_3     C     0.9987     0.7604     0.4834
A_0     C     0.1652     0.0666     0.4852
A_1     C     0.6024     0.4396     0.522
A_0     C     0.0548     0.067     0.6273
A_2     C     0.9006     0.7672     0.5652
A_1     C     0.2653     0.6045     0.2764
A_2     C     0.038     0.8039     0.3984
A_0     C     0.3666     0.8866     0.7192
A_2     C     0.197     0.165     0.4406
A_3     C     0.1791     0.8342     0.9723
A_2     C     0.793     0.8716     0.757
A_1     C     0.6082     0.4919     0.0518
A_1     C     0.3429     0.7951     0.101
A_1     C     0.9282     0.2798     0.0138
A_0     C     0.4562     0.2684     0.2811
A_0     C     0.8771     0.742     0.3918
A_2     C     0.5371     0.7363     0.3285
A_2     C     0.9076     0.0487     0.2367
A_2     C     0.284     0.9507     0.4872
A_1     C     0.44     0.2821     0.2394
A_1     C     0.1311     0.6828     0.6247
A_1     C     0.3952     0.3398     0.6414
A_2     C     0.7533     0.4309     0.371
A_2     C     0.4551     0.0415     0.2962
A_1     C     0.0158     0.7553     0.2881
A_3     C     0.2108     0.6383     0.2555
A_2     C     0.5459     0.124     0.6694
A_0     C     0.1403     0.6591     0.3196
A_2     C     0.8757     0.2135     0.1442
A_2     C     0.9996     0.1694     0.5975
A_1     C     0.7621     0.1605     0.4396
A_0     C     0.931     0.857     0.6619
A_3     C     0.7761     0.4744     0.6262
A_2     C     0.5814     0.5989     0.3929
A_1     C     0.1197     0.5448     0.2159
A_1     C     0.0787     0.0387     0.0537
A_2     C     0.3368     0.1652     0.6965
A_2     C     0.9432     0.7216     0.0605
A_3     C     0.2644     0.8669     0.3973
A_0     C     0.2497     0.9833     0.1817
A_2     C     0.452     0.1461     0.5951
A_1     C     0.9402     0.7658     0.375
A_0     C     0.2318     0.2015     0.8595
A_2     C     0.6063     0.5418     0.9068
A_1     C     0.933     0.9775     0.9333
A_1     C     0.9556     0.9121     0.8176
A_3     C     0.9566     0.9851     0.2778
A_1     C     0.9403     0.0496     0.2471
A_1     C     0.2893     0.6202     0.4089
A_2     C     0.9166     0.5254     0.3308
A_1     C     0.2831     0.0644     0.5896
A_0     C     0.8224     0.0561     0.4758
A_0     C     0.5189     0.0637     0.8526
A_0     C     0.7699     0.2769     0.8645
A_1     C     0.8165     0.6078     0.0129
A_2     C     0.6594     0.8784     0.9248
A_3     C     0.5912     0.071     0.7554
A_1     C     0.3373     0.8331     0.0643
A_1     C     0.5246     0.3653     0.2022
A_2     C     0.2937     0.294     0.9398
A_3     C     0.2319     0.7585     0.405
A_0     C     0.3231     0.8666     0.2125
A_1     C     0.2946     0.8917     0.2506
A_0     C     0.3282     0.6768     0.6016
A_1     C     0.1733     0.8662     0.3629
A_3     C     0.9097     0.0653     0.5569
A_1     C     0.9577     0.7434     0.2849
A_1     C     0.5899     0.8404     0.2933
A_3     C     0.9126     0.6029     0.4614
A_2     C     0.7059     0.0762     0.4567
A_0     C     0.2715     0.4268     0.7115
A_2     C     0.0574     0.9569     0.3455
A_1     C     0.3438     0.0899     0.3609
A_0     C     0.6528     0.7244     0.8358
A_2     C     0.6531     0.351     0.8336
A_2     C     0.6879     0.8116     0.5337
A_0     C     0.8563     0.3846     0.4199
A_1     C     0.4379     0.071     0.6276
A_2     C     0.4196     0.2193     0.3981
A_3     C     0.7537     0.398     0.5963
A_1     C     0.2387     0.2551     0.285
A_3     C     0.7922     0.8328     0.8213
A_1     C     0.1818     0.6859     0.6865
A_0     C     0.5145     0.0298     0.7158
A_2     C     0.2069     0.4705     0.9248
A_2     C     0.3155     0.6036     0.7019
A_3     C     0.8294     0.6783     0.6188
A_0     C     0.4703     0.9971     0.2493
A_0     C     0.8295     0.0654     0.9461
A_0     C     0.8554     0.8104     0.5477
A_0     C     0.3856     0.3136     0.4889
A_0     C     0.1516     0.7852     0.4484
A_3     C     0.0055     0.6831     0.4149
A_2     C     0.571     0.0144     0.4049
A_2     C     0.0913     0.6623     0.8077
A_1     C     0.5036     0.8593     0.7336
A_3     C     0.463     0.2936     0.8485
A_2     C     0.4752     0.6266     0.4917
A_0     C     0.0147     0.4581     0.0095
A_3     C     0.6041     0.12     0.548
A_2     C     0.3605     0.2996     0.7911
A_2     C     0.0927     0.8713     0.1847
A_0     C     0.0304     0.6057     0.5621
A_3     C     0.9196     0.0547     0.4677
A_3     C     0.9371     0.0704     0.9537
A_2     C     0.27     0.1802     0.7771
A_3     C     0.0549     0.2544     0.8945
A_2     C     0.8948     0.8348     0.9766
A_2     C     0.6842     0.8788     0.3303
A_3     C     0.1282     0.8841     0.1317
A_3     C     0.5687     0.5672     0.5764
A_3     C     0.642     0.0309     0.9832
A_2     C     0.9647     0.0263     0.136
A_1     C     0.5617     0.103     0.5278
A_2     C     0.5872     0.7939     0.1721
A_3     C     0.9626     0.3435     0.373
A_2     C     0.5103     0.6544     0.1373
A_3     C     0.8119     0.1644     0.7995
A_1     C     0.5541     0.6094     0.2977
A_0     C     0.5159     0.1174     0.452
A_3     C     0.803     0.1894     0.0199
A_1     C     0.4374     0.8647     0.0045
A_2     C     0.2434     0.7974     0.0709
A_0     C     0.1571     0.9665     0.8003
A_3     C     0.5459     0.6039     0.3744
A_0     C     0.47     0.2122     0.6231
A_1     C     0.2852     0.8221     0.9866
A_1     C     0.2146     0.3201     0.0753
A_1     C     0.7239     0.4989     0.2169
A_3     C     0.5931     0.6731     0.8434
A_3     C     0.9128     0.0849     0.6709
A_3     C     0.7715     0.1686     0.8195
A_2     C     0.8406     0.1785     0.6258
A_3     C     0.7833     0.3128     0.6116
A_0     C     0.5379     0.4177     0.8621
A_1     C     0.5355     0.4537     0.9219
A_1     C     0.9782     0.5022     0.9377
A_1     C     0.7454     0.738     0.1332
A_0     C     0.8959     0.3454     0.3891
A_3     C     0.0299     0.225     0.7578
A_2     C     0.9722     0.4722     0.0179
A_1     C     0.1274     0.575     0.5913
A_3     C     0.9284     0.9914     0.4575
A_1     C     0.7764     0.2185     0.0718
A_3     C     0.5252     0.1022     0.2723
A_3     C     0.3369     0.0579     0.4947
A_0     C     0.3293     0.549     0.6508
A_2     C     0.903     0.213     0.7701
A_1     C     0.2525     0.4414     0.6947
A_1     C     0.1482     0.2209     0.4951
A_2     C     0.1468     0.2194     0.7372
A_0     C     0.1925     0.0481     0.2399
A_0     C     0.2853     0.1263     0.3891
A_1     C     0.8903     0.7753     0.5606
A_1     C     0.353     0.8337     0.8194
A_0     C     0.2382     0.7506     0.5165
A_3     C     0.6864     0.9361     0.4499
A_3     C     0.7094     0.4276     0.444
A_0     C     0.682     0.5978     0.4247
A_3     C     0.8116     0.7211     0.434
A_2     C     0.9434     0.1387     0.1368
A_1     C     0.5919     0.0249     0.2198
A_3     C     0.1351     0.0004     0.47
A_0     C     0.4719     0.5584     0.7304
A_3     C     0.6966     0.3841     0.9095
A_2     C     0.7134     0.1008     0.5499
A_1     C     0.0387     0.3392     0.9483
A_2     C     0.0461     0.5408     0.1753
A_2     C     0.7431     0.8734     0.1917
A_0     C     0.8818     0.8234     0.6085
A_2     C     0.9513     0.3631     0.4403
A_2     C     0.1843     0.7118     0.3111
A_0     C     0.711     0.3609     0.8202
A_3     C     0.5355     0.7665     0.6423
A_3     C     0.0327     0.5977     0.9276
A_3     C     0.9467     0.2434     0.9346
A_2     C     0.7967     0.9928     0.5131
A_3     C     0.6536     0.8979     0.8801
A_0     C     0.1344     0.7581     0.8558
A_1     C     0.8305     0.0907     0.5137
A_3     C     0.7531     0.3991     0.8013
A_2     C     0.1131     0.41     0.4642
A_2     C     0.2774     0.3338     0.3472
A_1     C     0.3749     0.6999     0.4042
A_1     C     0.8925     0.8933     0.347
A_0     C     0.0561     0.7785     0.7371
A_3     C     0.14     0.4516     0.4465
A_1     C     0.2873     0.6654     0.4059
A_1     C     0.8818     0.4314     0.5278
A_3     C     0.5356     0.9477     0.074
A_3     C     0.2252     0.1972     0.7918
A_0     C     0.3998     0.4046     0.5658
A_2     C     0.1422     0.5276     0.3442
A_1     C     0.3871     0.6536     0.8657
A_1     C     0.4167     0.3235     0.94
A_3     C     0.8388     0.2594     0.2052
A_1     C     0.7187     0.7203     0.8729
A_2     C     0.6618     0.7658     0.5372
A_1     C     0.1508     0.5474     0.6898
A_1     C     0.714     0.0803     0.9168
A_1     C     0.6518     0.8992     0.2389
A_2     C     0.5031     0.233     0.4163
A_0     C     0.0475     0.9122     0.9321
A_1     C     0.3798     0.8775     0.005
A_1     C     0.1826     0.8945     0.112
A_0     C     0.8836     0.5499     0.2348
A_0     C     0.4227     0.7722     0.7667
A_0     C     0.5516     0.4448     0.121
A_0     C     0.1245     0.8239     0.1373
A_1     C     0.2335     0.0319     0.6276
A_0     C     0.8101     0.7053     0.3863
A_3     C     0.4803     0.0665     0.0685
A_0     C     0.0137     0.0551     0.5487
A_0     C     0.1512     0.893     0.4088
A_0     C     0.5092     0.0399     0.839
A_2     C     0.8354     0.4526     0.3222
A_1     C     0.9761     0.779     0.0849
A_2     C     0.3043     0.3684     0.5829
A_2     C     0.5982     0.7965     0.9966
A_1     C     0.8181     0.4267     0.826
A_3     C     0.7757     0.3083     0.791
A_1     C     0.5227     0.2824     0.5987
A_3     C     0.8     0.4672     0.7354
A_0     C     0.7537     0.4259     0.306
A_3     C     0.287     0.2419     0.3136
A_1     C     0.4623     0.6698     0.9323
A_0     C     0.1694     0.0406     0.485
A_1     C     0.213     0.9615     0.7485
A_3     C     0.9     0.9519     0.9722
A_0     C     0.5449     0.9395     0.8276
A_3     C     0.6006     0.1544     0.1582
A_1     C     0.8301     0.1042     0.2373
A_3     C     0.5382     0.7401     0.5615
A_3     C     0.7553     0.6926     0.7179
A_2     C     0.7892     0.7699     0.2789
A_1     C     0.1966     0.0471     0.9131
A_3     C     0.1245     0.6626     0.5896
A_2     C     0.6446     0.7834     0.0238
A_3     C     0.0511     0.3511     0.4755
A_3     C     0.6989     0.1439     0.1666
A_1     C     0.5555     0.0963     0.802
A_3     C     0.2607     0.4335     0.9683
A_3     C     0.512     0.4938     0.5164
A_2     C     0.1161     0.5476     0.6658
A_3     C     0.0228     0.66     0.352
A_2     C     0.1435     0.0927     0.1873
A_0     C     0.815     0.8514     0.0605
A_0     C     0.2278     0.2284     0.6365
A_3     C     0.3714     0.0343     0.3069
A_3     C     0.4269     0.1934     0.4924
A_1     C     0.97     0.8288     0.5218
A_1     C     0.3512     0.9537     0.9952
A_0     C     0.6915     0.909     0.976
A_2     C     0.1257     0.0951     0.173
A_3     C     0.6295     0.947     0.781
A_1     C     0.7098     0.455     0.6524
A_0     C     0.2358     0.7643     0.1912
A_3     C     0.1615     0.9371     0.3994
A_1     C     0.4423     0.0464     0.474
A_3     C     0.4091     0.9975     0.2976
A_1     C     0.3642     0.997     0.4729
A_0     C     0.0655     0.162     0.3137
A_3     C     0.6583     0.189     0.9395
A_3     C     0.7271     0.2713     0.2561
A_0     C     0.4609     0.4499     0.6418
A_2     C     0.6763     0.0099     0.6023
A_0     C     0.8845     0.543     0.0493
A_2     C     0.9938     0.097     0.5765
A_3     C     0.234     0.6064     0.175
A_0     C     0.1192     0.0805     0.7537
A_2     C     0.7217     0.435     0.5668
A_3     C     0.1011     0.721     0.5375
A_3     C     0.2871     0.7672     0.2798
A_3     C     0.2615     0.4977     0.2484
A_3     C     0.7739     0.6328     0.592
A_2     C     0.1049     0.7962     0.4867
A_0     C     0.2262     0.8051     0.2998
A_2     C     0.9643     0.3737     0.4699
A_1     C     0.1782     0.0053     0.4863
A_3     C     0.298     0.9402     0.1685
A_3     C     0.5582     0.2743     0.8419
A_3     C     0.0138     0.5749     0.3688
A_0     C     0.4373     0.6968     0.9428
A_3     C     0.9845     0.8103     0.379
A_0     C     0.3018     0.7063     0.035
A_2     C     0.1838     0.8779     0.5863
A_0     C     0.0918     0.0319     0.9173
A_2     C     0.7166     0.7702     0.3151
A_0     C     0.9426     0.2789     0.5233
A_2     C     0.729     0.1288     0.4402
A_3     C     0.3048     0.7069     0.2379
A_3     C     0.7256     0.6575     0.8474
A_3     C     0.3187     0.1669     0.0311
A_3     C     0.5889     0.2505     0.0853
A_3     C     0.2117     0.6024     0.0987
A_0     C     0.7267     0.8872     0.9151
A_1     C     0.4694     0.2355     0.5531
A_2     C     0.3811     0.3193     0.2742
A_1     C     0.9539     0.8829     0.7889
A_1     C     0.4672     0.5606     0.3811
A_1     C     0.1821     0.6153     0.324
A_3     C     0.7226     0.252     0.0167
A_2     C     0.8718     0.4633     0.3859
A_0     C     0.5461     0.5662     0.329
A_2     C     0.6976     0.3067     0.6136
A_3     C     0.6002     0.3561     0.4859
A_0     C     0.0505     0.7888     0.8601
A_0     C     0.9565     0.5088     0.2011
A_1     C     0.2062     0.8031     0.3974
A_2     C     0.2861     0.5701     0.0779
A_3     C     0.2734     0.0874     0.7072
A_0     C     0.2401     0.0148     0.2154
A_3     C     0.9461     0.9301     0.1344
A_3     C     0.1727     0.0213     0.5279
A_3     C     0.9058     0.4622     0.8535
A_0     C     0.519     0.6437     0.7931
A_1     C     0.3303     0.7837     0.1256
A_1     C     0.3517     0.134     0.999
A_1     C     0.4792     0.6782     0.1194
A_2     C     0.0227     0.3503     0.3317
A_1     C     0.9173     0.0774     0.451
A_0     C     0.8417     0.0866     0.836
A_3     C     0.3947     0.8305     0.8363
A_1     C     0.9725     0.2812     0.0118
A_0     C     0.1355     0.25     0.3904
A_3     C     0.9172     0.5499     0.1663
A_1     C     0.2244     0.2986     0.1537
A_0     C     0.5     0.1248     0.9808
A_2     C     0.6227     0.784     0.1879
A_2     C     0.9842     0.7098     0.7898
A_0     C     0.6796     0.3238     0.4552
A_1     C     0.4735     0.2126     0.6796
A_3     C     0.318     0.4854     0.205
A_3     C     0.1791     0.9276     0.26
A_3     C     0.218     0.8532     0.4378
A_3     C     0.7206     0.3364     0.0887
A_3     C     0.7772     0.1502     0.0259
A_2     C     0.3437     0.3782     0.3195
A_2     C     0.745     0.1903     0.4265
A_2     C     0.187     0.6959     0.5073
A_1     C     0.1735     0.7543     0.3032
A_3     C     0.1171     0.6948     0.4815
A_0     C     0.754     0.8811     0.4182
A_2     C     0.4317     0.5193     0.9086
A_0     C     0.8004     0.3127     0.7866
A_1     C     0.1019     0.9469     0.4991
A_1     C     0.7746     0.2041     0.0454
A_3     C     0.8865     0.8486     0.4153
A_0     C     0.9574     0.3123     0.7162
A_2     C     0.2887     0.31     0.0176
A_3     C     0.7589     0.8242     0.3515
A_3     C     0.9109     0.0153     0.3983
A_3     C     0.5217     0.3077     0.5628
A_3     C     0.9551     0.131     0.5871
A_0     C     0.2931     0.1931     0.8789
A_1     C     0.7694     0.6904     0.9742
A_1     C     0.448     0.4023     0.8862
A_2     C     0.7893     0.1732     0.1749
A_2     C     0.531     0.273     0.1525
A_3     C     0.7293     0.5313     0.7673
A_2     C     0.6526     0.1091     0.3109
A_1     C     0.6763     0.5973     0.6671
A_2     C     0.7049     0.9744     0.0384
A_2     C     0.2018     0.6945     0.2458
A_3     C     0.5771     0.4568     0.7613
A_0     C     0.6054     0.2451     0.1728
A_2     C     0.4728     0.505     0.334
A_1     C     0.6247     0.7367     0.9828
A_1     C     0.1938     0.5015     0.8471
A_0     C     0.0428     0.0264     0.457
A_3     C     0.3045     0.4266     0.4174
A_0     C     0.9158     0.4856     0.5632
A_1     C     0.7126     0.4079     0.2191
A_3     C     0.448     0.817     0.5149
A_0     C     0.7206     0.9544     0.2194
A_2     C     0.1656     0.0873     0.0567
A_3     C     0.3403     0.1403     0.1753
A_3     C     0.465     0.1098     0.7772
A_3     C     0.5165     0.0013     0.8658
A_2     C     0.3156     0.3082     0.4014
A_3     C     0.0264     0.8641     0.8502
A_3     C     0.8575     0.0846     0.6794
A_0     C     0.0964     0.5972     0.5385
A_2     C     0.1603     0.6132     0.9163
A_0     C     0.7015     0.2708     0.579
A_1     C     0.5099     0.1505     0.5676
A_0     C     0.9033     0.3447     0.0103
A_3     C     0.0212     0.4876     0.7548
A_1     C     0.4526     0.0723     0.6619
A_0     C     0.4824     0.9073     0.8896
A_0     C     0.5939     0.3217     0.0544
A_2     C     0.611     0.446     0.7532
A_0     C     0.0998     0.1388     0.4289
A_3     C     0.1761     0.5941     0.306
A_1     C     0.1295     0.9281     0.4553
A_3     C     0.5031     0.606     0.5318
A_0     C     0.1426     0.4282     0.8928
A_0     C     0.7035     0.2231     0.4623
A_2     C     0.7569     0.0376     0.9014
A_3     C     0.0906     0.6968     0.2611
A_3     C     0.3248     0.514     0.9949
A_1     C     0.222     0.4503     0.0833
A_1     C     0.7942     0.3878     0.4485
A_2     C     0.7429     0.1607     0.4194
A_1     C     0.1661     0.4244     0.1778
A_3     C     0.1743     0.3658     0.2241
A_1     C     0.9034     0.2768     0.5174
A_2     C     0.2923     0.719     0.1633
A_2     C     0.2821     0.68     0.7735
A_2     C     0.1084     0.3248     0.5072
A_2     C     0.4023     0.152     0.9279
A_3     C     0.9759     0.1937     0.5458
A_3     C     0.6407     0.7339     0.2702
A_1     C     0.7297     0.0959     0.9304
A_2     C     0.4826     0.1731     0.6142
A_3     C     0.1507     0.6523     0.952
A_1     C     0.5067     0.1219     0.3708
A_1     C     0.7839     0.9187     0.7894
A_3     C     0.6874     0.0071     0.526
A_0     C     0.7736     0.446     0.2238
A_1     C     0.7405     0.9262     0.2777
A_3     C     0.7719     0.7053     0.3007
A_3     C     0.6708     0.1177     0.7112
A_3     C     0.7349     0.742     0.5862
A_3     C     0.0619     0.0318     0.08
A_1     C     0.4464     0.412     0.3901
A_1     C     0.4496     0.0544     0.3299
A_0     C     0.1488     0.5348     0.6771
A_1     C     0.419     0.5572     0.2273
A_2     C     0.3365     0.0961     0.6532
A_1     C     0.5252     0.6917     0.0993
A_3     C     0.4192     0.1961     0.3361
A_2     C     0.9227     0.3634     0.3259
A_1     C     0.7951     0.3781     0.1456
A_3     C     0.2889     0.7946     0.8581
A_2     C     0.6707     0.0891     0.3796
A_2     C     0.9744     0.2213     0.4136
A_0     C     0.4395     0.0948     0.3428
A_2     C     0.6307     0.7287     0.5492
A_1     C     0.9179     0.0801     0.8382
A_0     C     0.3758     0.1199     0.9253
A_3     C     0.4847     0.0771     0.2186
A_0     C     0.6428     0.471     0.6155
A_2     C     0.8228     0.0691     0.1804
A_0     C     0.2991     0.2836     0.4397
A_3     C     0.9247     0.2509     0.193
A_1     C     0.9071     0.484     0.323
A_0     C     0.9437     0.6011     0.8661
A_2     C     0.012     0.0322     0.1473
A_1     C     0.9289     0.2421     0.313
A_3     C     0.8524     0.2729     0.705
A_3     C     0.8212     0.157     0.0339
A_0     C     0.8867     0.4584     0.4712
A_0     C     0.653     0.748     0.392
A_1     C     0.0328     0.114     0.8758
A_1     C     0.5255     0.3989     0.5228
A_3     C     0.159     0.7084     0.8582
A_0     C     0.5286     0.0458     0.1403
A_2     C     0.5082     0.4242     0.1365
A_3     C     0.7166     0.2088     0.8006
A_1     C     0.7401     0.9931     0.5014
A_0     C     0.1214     0.9524     0.5932
A_0     C     0.1696     0.521     0.4647
A_1     C     0.1227     0.8104     0.6301
A_3     C     0.8636     0.4201     0.2772
A_0     C     0.0986     0.8131     0.4376
A_1     C     0.3531     0.7628     0.1615
A_0     C     0.6473     0.4549     0.017
A_2     C     0.518     0.729     0.1314
A_0     C     0.6758     0.8538     0.9448
A_3     C     0.2301     0.7089     0.3659
A_2     C     0.7419     0.8757     0.9408
A_2     C     0.4563     0.1166     0.7371
A_2     C     0.1252     0.6458     0.6889
A_1     C     0.5691     0.9147     0.5343
A_2     C     0.7422     0.5033     0.0234
A_2     C     0.269     0.0185     0.8568
A_1     C     0.6644     0.9855     0.4415
A_1     C     0.294     0.6059     0.65
A_3     C     0.3001     0.8744     0.2981
A_1     C     0.0528     0.1253     0.2772
A_1     C     0.9764     0.2435     0.8845
A_2     C     0.354     0.2296     0.411
A_3     C     0.985     0.8996     0.6721
A_1     C     0.9334     0.0202     0.4222
A_0     C     0.8277     0.9049     0.0441
A_3     C     0.5245     0.0278     0.7648
A_3     C     0.2426     0.6086     0.0039
