MAT-11

loop_
_symmetry_equiv_pos_as_xyz
  x,y,z
_cell_length_a          32.6383
_cell_length_b          43.7836
_cell_length_c          22.0749
_cell_angle_alpha       90.0000
_cell_angle_beta        90.0000
_cell_angle_gamma       90.0000
loop_
_atom_site_label
_atom_site_type_symbol
_atom_site_fract_x
_atom_site_fract_y
_atom_site_fract_z
A_0     C     0.3469     0.8016     0.6395
A_1     C     0.906     0.008     0.1266
A_2     C     0.1765     0.7844     0.5898
A_2     C     0.8411     0.9413     0.3347
A_1     C     0.3306     0.6312     0.9408
A_2     C     0.595     0.4039     0.1568
A_1     C     0.9426     0.1152     0.6925
A_1     C     0.4389     0.997     0.5724
A_2     C     0.3347     0.4296     0.3613
A_1     C     0.1915     0.9094     0.9473
A_2     C     0.8741     0.6311     0.121
A_0     C     0.2084     0.6297     0.9307
A_0     C     0.402     0.7902     0.3571
A_0     C     0.4262     0.5431     0.7308
A_2     C     0.4851     0.6238     0.0087
A_2     C     0.0246     0.0839     0.4495
A_3     C     0.3257     0.8415     0.0521
A_1     C     0.353     0.2128     0.3501
A_0     C     0.9315     0.1414     0.4586
A_1     C     0.7774     0.8238     0.4845
A_2     C     0.4795     0.7993     0.4733
A_0     C     0.9808     0.661     0.1483
A_1     C     0.7887     0.0959     0.1176
A_1     C     0.2187     0.8528     0.958
A_3     C     0.8053     0.4783     0.5482
A_1     C     0.629     0.2499     0.3331
A_3     C     0.5254     0.7144     0.2787
A_2     C     0.1305     0.2457     0.5008
A_1     C     0.9637     0.32     0.4576
A_1     C     0.6987     0.7554     0.5679
A_3     C     0.4295     0.3561     0.6217
A_0     C     0.4956     0.8455     0.1365
A_0     C     0.4797     0.8311     0.5561
A_1     C     0.3915     0.3292     0.3723
A_3     C     0.8692     0.5697     0.4278
A_1     C     0.9928     0.0697     0.4179
A_2     C     0.573     0.4589     0.8595
A_3     C     0.0464     0.1305     0.7135
A_3     C     0.5993     0.6926     0.2834
A_0     C     0.6371     0.1221     0.3221
A_2     C     0.0475     0.6707     0.1771
A_1     C     0.7955     0.2256     0.2755
A_3     C     0.4231     0.4684     0.299
A_3     C     0.6239     0.3354     0.4864
A_0     C     0.8594     0.3451     0.5828
A_3     C     0.0915     0.2163     0.1746
A_2     C     0.1399     0.9621     0.121
A_3     C     0.4573     0.4829     0.6789
A_0     C     0.3155     0.8757     0.5541
A_2     C     0.1191     0.051     0.311
A_2     C     0.4788     0.7059     0.2481
A_2     C     0.1201     0.0645     0.8242
A_3     C     0.7665     0.2602     0.4524
A_1     C     0.7207     0.1495     0.6383
A_1     C     0.8174     0.1409     0.9303
A_1     C     0.3764     0.6253     0.0125
A_3     C     0.5241     0.5759     0.12
A_1     C     0.4368     0.1137     0.0255
A_3     C     0.3599     0.6663     0.2968
A_3     C     0.1498     0.6269     0.4536
A_2     C     0.197     0.3547     0.9835
A_1     C     0.031     0.2054     0.562
A_1     C     0.1268     0.9892     0.4293
A_3     C     0.0303     0.4459     0.8933
A_1     C     0.3297     0.7963     0.9305
A_3     C     0.6452     0.2721     0.784
A_3     C     0.1309     0.6732     0.5442
A_2     C     0.5493     0.4419     0.8523
A_3     C     0.6255     0.0572     0.8833
A_0     C     0.4666     0.5727     0.8072
A_0     C     0.5737     0.6837     0.669
A_2     C     0.2334     0.5408     0.6046
A_0     C     0.0889     0.1671     0.5034
A_2     C     0.3122     0.6017     0.3447
A_0     C     0.1929     0.1431     0.4415
A_2     C     0.2125     0.7205     0.7806
A_3     C     0.6488     0.8363     0.6102
A_0     C     0.4609     0.224     0.0645
A_1     C     0.5311     0.7183     0.8085
A_3     C     0.4328     0.4855     0.8005
A_1     C     0.5962     0.5905     0.3803
A_1     C     0.4303     0.1872     0.8628
A_1     C     0.154     0.5348     0.5801
A_3     C     0.919     0.2637     0.3658
A_3     C     0.1001     0.3665     0.4794
A_1     C     0.1047     0.9557     0.0836
A_1     C     0.5805     0.9167     0.6025
A_3     C     0.6573     0.0608     0.958
A_1     C     0.6375     0.1762     0.1131
A_0     C     0.0585     0.2917     0.7655
A_0     C     0.2303     0.622     0.28
A_3     C     0.3033     0.9395     0.2814
A_0     C     0.0195     0.2607     0.2183
A_3     C     0.8712     0.7161     0.3703
A_1     C     0.0695     0.5509     0.6462
A_2     C     0.9499     0.1121     0.0718
A_2     C     0.994     0.0456     0.3434
A_3     C     0.9974     0.0562     0.1688
A_2     C     0.7242     0.4106     0.5954
A_2     C     0.3724     0.1392     0.6148
A_0     C     0.3252     0.3698     0.324
A_3     C     0.6191     0.8873     0.0461
A_0     C     0.8249     0.0977     0.6816
A_3     C     0.4553     0.9576     0.2424
A_2     C     0.4921     0.0025     0.6008
A_2     C     0.6884     0.6338     0.563
A_3     C     0.9467     0.6058     0.8571
A_2     C     0.8834     0.5082     0.0561
A_2     C     0.4513     0.2479     0.2586
A_1     C     0.6169     0.5779     0.8591
A_2     C     0.3113     0.9102     0.3884
A_0     C     0.0641     0.358     0.3131
A_0     C     0.4262     0.8728     0.422
A_3     C     0.6368     0.2124     0.6199
A_1     C     0.8421     0.9421     0.9572
A_3     C     0.6516     0.2216     0.3339
A_1     C     0.1551     0.8007     0.8489
A_2     C     0.9392     0.702     0.5123
A_2     C     0.9236     0.5366     0.3364
A_2     C     0.4924     0.6259     0.9454
A_3     C     0.1158     0.1292     0.3872
A_1     C     0.1789     0.6712     0.7941
A_3     C     0.7548     0.7194     0.3507
A_3     C     0.8668     0.3072     0.8128
A_1     C     0.7621     0.1593     0.8176
A_0     C     0.2985     0.961     0.6987
A_0     C     0.634     0.4474     0.6733
A_3     C     0.575     0.8402     0.2814
A_0     C     0.5509     0.3864     0.054
A_1     C     0.1963     0.4202     0.8586
A_1     C     0.1729     0.906     0.627
A_2     C     0.2469     0.7011     0.4916
A_1     C     0.0143     0.7363     0.3074
A_1     C     0.4072     0.8691     0.3839
A_3     C     0.4576     0.1211     0.7411
A_1     C     0.8719     0.5004     0.2079
A_3     C     0.6636     0.8965     0.0968
A_3     C     0.2974     0.1257     0.2799
A_1     C     0.7267     0.6907     0.1542
A_0     C     0.0769     0.2227     0.5116
A_3     C     0.7137     0.8438     0.732
A_1     C     0.52     0.672     0.2714
A_1     C     0.2352     0.2368     0.3971
A_0     C     0.9406     0.1571     0.0651
A_0     C     0.2904     0.3752     0.3388
A_2     C     0.393     0.3295     0.0449
A_0     C     0.3849     0.7242     0.9245
A_3     C     0.1215     0.9768     0.9864
A_2     C     0.874     0.1771     0.3625
A_0     C     0.6801     0.9737     0.3268
A_3     C     0.3405     0.793     0.313
A_3     C     0.1692     0.8453     0.0736
A_3     C     0.457     0.7152     0.6306
A_3     C     0.849     0.8083     0.0169
A_1     C     0.2161     0.4529     0.4351
A_1     C     0.373     0.4174     0.5346
A_3     C     0.0581     0.9923     0.5282
A_1     C     0.1072     0.5432     0.7779
A_3     C     0.0211     0.9357     0.3948
A_0     C     0.721     0.8916     0.2153
A_2     C     0.5713     0.5237     0.4887
A_1     C     0.8734     0.9623     0.247
A_0     C     0.739     0.8491     0.7656
A_1     C     0.6535     0.6424     0.0293
A_1     C     0.6108     0.3263     0.1414
A_2     C     0.2013     0.3395     0.2428
A_3     C     0.7054     0.5815     0.5542
A_3     C     0.8999     0.6471     0.4425
A_1     C     0.7474     0.9013     0.6878
A_0     C     0.1977     0.9079     0.2712
A_0     C     0.3006     0.7335     0.0732
A_3     C     0.51     0.9313     0.4864
A_2     C     0.5985     0.8781     0.5076
A_2     C     0.2799     0.9027     0.161
A_0     C     0.9157     0.6126     0.0072
A_2     C     0.2411     0.4556     0.6066
A_3     C     0.4561     0.4184     0.2858
A_3     C     0.3642     0.6134     0.5136
A_1     C     0.516     0.1589     0.9969
A_0     C     0.2269     0.4512     0.9565
A_0     C     0.3399     0.8338     0.0206
A_1     C     0.2618     0.458     0.7583
A_0     C     0.0427     0.2639     0.9534
A_3     C     0.8164     0.7952     0.4766
A_0     C     0.9263     0.5814     0.1736
A_1     C     0.7655     0.8003     0.6425
A_0     C     0.3007     0.3257     0.7392
A_0     C     0.4746     0.3754     0.7922
A_1     C     0.2961     0.0906     0.6128
A_3     C     0.0932     0.8167     0.0392
A_0     C     0.5692     0.0452     0.439
A_1     C     0.2184     0.5023     0.3884
A_2     C     0.5506     0.2554     0.4446
A_2     C     0.6809     0.4461     0.5717
A_2     C     0.867     0.3706     0.9573
A_0     C     0.3285     0.6905     0.1701
A_1     C     0.1358     0.6986     0.1929
A_3     C     0.2815     0.3176     0.3121
A_3     C     0.9037     0.8742     0.8712
A_3     C     0.1406     0.9591     0.8763
A_2     C     0.2576     0.8639     0.3466
A_3     C     0.6214     0.8992     0.0769
A_0     C     0.3895     0.7625     0.6261
A_3     C     0.828     0.6698     0.4324
A_3     C     0.9027     0.3692     0.2301
A_1     C     0.3632     0.3208     0.4273
A_2     C     0.3681     0.6848     0.3127
A_2     C     0.8109     0.8239     0.6338
A_0     C     0.2482     0.3777     0.0648
A_0     C     0.8913     0.6863     0.824
A_1     C     0.4183     0.8991     0.2179
A_1     C     0.2066     0.4717     0.485
A_2     C     0.5194     0.8675     0.3289
A_1     C     0.2578     0.4176     0.5371
A_3     C     0.993     0.1097     0.7683
A_2     C     0.4983     0.8188     0.4011
A_2     C     0.3809     0.9351     0.1519
A_2     C     0.8332     0.7564     0.8868
A_0     C     0.1543     0.0186     0.6326
A_1     C     0.7616     0.1008     0.0588
A_3     C     0.9141     0.6914     0.9878
A_0     C     0.6192     0.2779     0.8328
A_3     C     0.3833     0.2916     0.217
A_1     C     0.6863     0.4463     0.1856
A_0     C     0.4435     0.017     0.4415
A_0     C     0.098     0.686     0.8134
A_3     C     0.0792     0.8646     0.646
A_1     C     0.9539     0.1751     0.2884
A_0     C     0.9772     0.9289     0.5759
A_1     C     0.81     0.4995     0.2683
A_3     C     0.3358     0.269     0.8422
A_0     C     0.2082     0.7534     0.3261
A_0     C     0.9966     0.7447     0.0299
A_1     C     0.7083     0.722     0.0132
A_2     C     0.5609     0.2671     0.3978
A_2     C     0.221     0.5994     0.3228
A_2     C     0.3574     0.4152     0.0639
A_0     C     0.9274     0.6228     0.8882
A_1     C     0.1785     0.2462     0.9389
A_1     C     0.3154     0.298     0.7217
A_3     C     0.8161     0.2314     0.8496
A_1     C     0.7184     0.0732     0.1546
A_2     C     0.9104     0.7281     0.7889
A_0     C     0.7881     0.2477     0.6534
A_1     C     0.5119     0.5136     0.3323
A_0     C     0.0879     0.5868     0.8655
A_3     C     0.7935     0.015     0.6187
A_1     C     0.6247     0.6458     0.9134
A_0     C     0.2461     0.7116     0.0618
A_2     C     0.8811     0.7716     0.6388
A_3     C     0.0227     0.7951     0.1306
A_1     C     0.403     0.3898     0.0733
A_3     C     0.4998     0.9854     0.878
A_2     C     0.7761     0.4493     0.1854
A_2     C     0.3893     0.0739     0.576
A_3     C     0.0997     0.787     0.3341
A_2     C     0.9921     0.4276     0.8824
A_2     C     0.5294     0.3392     0.8327
A_0     C     0.0448     0.2726     0.0859
A_1     C     0.3952     0.4506     0.0514
A_0     C     0.8989     0.3767     0.8461
A_2     C     0.571     0.5172     0.1422
A_2     C     0.6333     0.9214     0.6376
A_1     C     0.2395     0.4132     0.5461
A_2     C     0.6283     0.5596     0.8514
A_2     C     0.1333     0.7097     0.1081
A_2     C     0.2113     0.101     0.4151
A_2     C     0.1727     0.7703     0.5916
A_3     C     0.4418     0.4813     0.9384
A_3     C     0.0986     0.7878     0.6583
A_2     C     0.6345     0.7191     0.2113
A_1     C     0.359     0.5831     0.5299
A_3     C     0.9404     0.3041     0.6779
A_2     C     0.0792     0.5004     0.7854
A_2     C     0.1275     0.4197     0.6947
A_0     C     0.6297     0.947     0.995
A_2     C     0.3014     0.8192     0.6607
A_3     C     0.9294     0.9808     0.135
A_3     C     0.0308     0.5062     0.3013
A_3     C     0.5642     0.7392     0.8122
A_2     C     0.052     0.5039     0.5157
A_3     C     0.1674     0.5552     0.3576
A_1     C     0.9572     0.6458     0.329
A_2     C     0.393     0.8819     0.6157
A_0     C     0.5178     0.4893     0.0696
A_3     C     0.1299     0.6449     0.7831
A_2     C     0.324     0.6333     0.9446
A_3     C     0.5836     0.8237     0.2771
A_3     C     0.7067     0.4376     0.8471
A_3     C     0.6653     0.7785     0.8367
A_2     C     0.2439     0.8554     0.9841
A_3     C     0.9899     0.5242     0.5802
A_1     C     0.989     0.612     0.8931
A_1     C     0.0527     0.4364     0.4062
A_2     C     0.6657     0.6929     0.3278
A_2     C     0.6167     0.3548     0.7256
A_0     C     0.4784     0.0428     0.3742
A_1     C     0.0614     0.9703     0.7952
A_2     C     0.2224     0.7898     0.2234
A_0     C     0.1052     0.5997     0.9397
A_3     C     0.5175     0.9372     0.6585
A_0     C     0.8736     0.518     0.1864
A_2     C     0.1141     0.955     0.8263
A_1     C     0.7603     0.6387     0.3513
A_0     C     0.2513     0.5902     0.1887
A_2     C     0.4484     0.8293     0.8612
A_3     C     0.0385     0.9987     0.6924
A_0     C     0.7115     0.3396     0.3485
A_2     C     0.8526     0.8409     0.891
A_3     C     0.9263     0.1601     0.3859
A_3     C     0.6492     0.6831     0.7976
A_0     C     0.2718     0.6943     0.1755
A_1     C     0.9795     0.3392     0.5458
A_1     C     0.7538     0.9086     0.2739
A_2     C     0.2207     0.2483     0.9077
A_3     C     0.8954     0.2951     0.8692
A_0     C     0.7278     0.4727     0.6693
A_0     C     0.3832     0.5663     0.8448
A_2     C     0.1334     0.2597     0.842
A_0     C     0.6838     0.4129     0.2099
A_0     C     0.7393     0.9295     0.2408
A_3     C     0.2299     0.8839     0.6858
A_1     C     0.3821     0.509     0.2579
A_0     C     0.4087     0.8515     0.4692
A_3     C     0.6767     0.3233     0.7152
A_2     C     0.3954     0.9419     0.1369
A_0     C     0.5318     0.6659     0.2424
A_1     C     0.1626     0.2529     0.1477
A_3     C     0.0515     0.5252     0.3376
A_3     C     0.0902     0.6407     0.4396
A_1     C     0.9378     0.6807     0.8211
A_2     C     0.8046     0.8264     0.3966
A_0     C     0.2886     0.2319     0.3977
A_0     C     0.5256     0.7578     0.3728
A_0     C     0.6298     0.9888     0.519
A_3     C     0.5459     0.0377     0.1637
A_3     C     0.0908     0.7536     0.009
A_2     C     0.3226     0.7779     0.2954
A_3     C     0.0341     0.4758     0.5139
A_1     C     0.2211     0.1698     0.4807
A_2     C     0.21     0.3174     0.1924
A_2     C     0.9758     0.8146     0.5691
A_2     C     0.3695     0.8428     0.3725
A_0     C     0.9637     0.4965     0.1549
A_0     C     0.5174     0.4118     0.7855
A_0     C     0.5041     0.0243     0.6736
A_3     C     0.7247     0.9853     0.7481
A_1     C     0.2868     0.1456     0.4508
A_1     C     0.5216     0.3997     0.5624
A_1     C     0.882     0.7515     0.1967
A_0     C     0.2918     0.3995     0.3396
A_0     C     0.5031     0.3967     0.5647
A_1     C     0.6544     0.3571     0.3879
A_1     C     0.0891     0.6661     0.3097
A_2     C     0.9695     0.2807     0.0918
A_0     C     0.5066     0.9877     0.2923
A_0     C     0.3628     0.877     0.9346
A_0     C     0.4277     0.1482     0.7303
A_1     C     0.7945     0.6047     0.943
A_3     C     0.6534     0.461     0.1236
A_2     C     0.6374     0.2319     0.8611
A_3     C     0.9708     0.0604     0.7983
A_2     C     0.3452     0.2395     0.1436
A_2     C     0.5321     0.2132     0.0331
A_1     C     0.3004     0.7022     0.6088
A_2     C     0.5739     0.5896     0.6152
A_1     C     0.7138     0.2179     0.3858
A_1     C     0.0123     0.6323     0.1575
A_3     C     0.4148     0.5582     0.9772
A_2     C     0.9569     0.4004     0.592
A_2     C     0.5785     0.4721     0.0148
A_1     C     0.8121     0.0216     0.9513
A_1     C     0.4852     0.3524     0.1192
A_1     C     0.4569     0.0175     0.9474
A_3     C     0.7231     0.9142     0.7202
A_1     C     0.8223     0.018     0.4233
A_1     C     0.964     0.0009     0.8433
A_2     C     0.7846     0.5709     0.7939
A_2     C     0.7484     0.4188     0.2746
A_1     C     0.9943     0.9727     0.8029
A_0     C     0.7082     0.7009     0.0133
A_1     C     0.8812     0.3812     0.0122
A_3     C     0.1765     0.7627     0.9888
A_0     C     0.773     0.0346     0.6475
A_3     C     0.5193     0.5726     0.8255
A_0     C     0.0684     0.5787     0.5678
A_0     C     0.6641     0.5599     0.9514
A_0     C     0.3868     0.7053     0.4492
A_2     C     0.4264     0.7732     0.2871
A_2     C     0.2453     0.1138     0.0318
A_3     C     0.0916     0.8673     0.8992
A_1     C     0.3387     0.7677     0.0224
A_1     C     0.3964     0.2384     0.3117
A_0     C     0.8093     0.6772     0.2647
A_2     C     0.3919     0.8266     0.9324
A_3     C     0.297     0.3931     0.1268
A_0     C     0.5685     0.6739     0.9329
A_2     C     0.1815     0.1704     0.2905
A_3     C     0.5541     0.9687     0.9032
A_1     C     0.3733     0.1794     0.2671
A_3     C     0.9198     0.6078     0.123
A_2     C     0.3147     0.8229     0.7892
A_3     C     0.7885     0.226     0.2689
A_1     C     0.6286     0.829     0.5597
A_2     C     0.0384     0.2268     0.7955
A_2     C     0.1694     0.2736     0.0138
A_0     C     0.9073     0.4531     0.8649
A_2     C     0.1808     0.4584     0.3069
A_2     C     0.3259     0.5472     0.1521
A_1     C     0.7731     0.6283     0.9692
A_0     C     0.2392     0.6918     0.2262
A_2     C     0.8606     0.0269     0.2303
A_3     C     0.5956     0.2893     0.6928
A_2     C     0.7803     0.889     0.743
A_0     C     0.6966     0.9768     0.27
A_1     C     0.4125     0.9775     0.2148
A_3     C     0.0726     0.9316     0.6875
A_2     C     0.0257     0.6925     0.8586
A_1     C     0.9486     0.0422     0.8613
A_0     C     0.7146     0.3865     0.8537
A_0     C     0.4017     0.5015     0.0733
A_1     C     0.932     0.7244     0.7332
A_3     C     0.0124     0.0698     0.4119
A_3     C     0.3361     0.4078     0.6745
A_1     C     0.4003     0.5372     0.2333
A_1     C     0.4267     0.4237     0.7602
A_3     C     0.5304     0.6268     0.1117
A_1     C     0.6358     0.6023     0.5882
A_2     C     0.4359     0.9766     0.7898
A_2     C     0.0257     0.4713     0.8688
A_0     C     0.0809     0.3609     0.504
A_3     C     0.7123     0.5013     0.1434
A_0     C     0.0118     0.1116     0.9355
A_1     C     0.2933     0.2671     0.3449
A_0     C     0.7104     0.1443     0.9142
A_2     C     0.9671     0.8086     0.8847
A_2     C     0.0697     0.3445     0.1385
A_0     C     0.4888     0.5095     0.8653
A_1     C     0.0332     0.9858     0.8348
A_3     C     0.144     0.8229     0.3608
A_3     C     0.7208     0.0457     0.6952
A_0     C     0.5012     0.631     0.6696
A_2     C     0.0762     0.1646     0.6483
A_3     C     0.5892     0.1932     0.7646
A_3     C     0.4391     0.6201     0.2387
A_1     C     0.4139     0.5735     0.4896
A_1     C     0.8891     0.3645     0.2306
A_1     C     0.8681     0.7955     0.0905
A_2     C     0.1909     0.4776     0.1496
A_0     C     0.4197     0.4122     0.2729
A_1     C     0.0374     0.4029     0.4769
A_3     C     0.1865     0.9046     0.5536
A_3     C     0.4668     0.9823     0.9905
A_2     C     0.3874     0.1044     0.4095
A_2     C     0.0186     0.4479     0.513
A_1     C     0.0865     0.9301     0.9027
A_2     C     0.8035     0.9159     0.5793
A_2     C     0.7364     0.5341     0.729
A_2     C     0.6529     0.7307     0.3079
A_0     C     0.0169     0.9296     0.4886
A_1     C     0.6963     0.2495     0.823
A_1     C     0.3546     0.005     0.6089
A_0     C     0.7357     0.0044     0.4492
A_0     C     0.2953     0.106     0.1185
A_0     C     0.4584     0.3238     0.6594
A_1     C     0.1734     0.9709     0.4367
A_0     C     0.8954     0.0677     0.3284
A_2     C     0.5504     0.4342     0.9019
A_1     C     0.753     0.1514     0.3106
A_3     C     0.5468     0.9845     0.3269
A_1     C     0.096     0.0023     0.0569
A_2     C     0.6305     0.3252     0.8368
A_0     C     0.4432     0.2827     0.3581
A_2     C     0.577     0.2499     0.2433
A_0     C     0.9485     0.0651     0.9138
A_3     C     0.1326     0.9921     0.5567
A_0     C     0.1982     0.1841     0.1144
A_0     C     0.1553     0.0951     0.0174
A_3     C     0.9392     0.4504     0.134
A_1     C     0.0319     0.0509     0.7398
A_0     C     0.723     0.6858     0.6639
A_1     C     0.657     0.6954     0.8681
A_3     C     0.3119     0.6465     0.8405
A_2     C     0.3563     0.5895     0.4518
A_0     C     0.85     0.4737     0.7911
A_1     C     0.2657     0.9152     0.3238
A_2     C     0.7734     0.3856     0.9726
A_2     C     0.9859     0.9735     0.4571
A_0     C     0.6624     0.1532     0.5572
A_0     C     0.3943     0.3239     0.869
A_0     C     0.6137     0.1615     0.8169
A_0     C     0.8571     0.6037     0.4357
A_1     C     0.5612     0.5841     0.532
A_2     C     0.6355     0.6932     0.1568
A_0     C     0.0957     0.2481     0.8609
A_1     C     0.5993     0.8606     0.6127
A_1     C     0.7162     0.3291     0.3683
A_2     C     0.7397     0.4536     0.0186
A_3     C     0.3144     0.7384     0.7984
A_3     C     0.1421     0.6666     0.8961
A_0     C     0.6233     0.4628     0.657
A_1     C     0.6971     0.1457     0.7771
A_0     C     0.1544     0.6028     0.3446
A_1     C     0.6862     0.3385     0.5155
A_2     C     0.729     0.273     0.4036
A_3     C     0.6319     0.7453     0.04
A_2     C     0.4933     0.4544     0.7453
A_1     C     0.982     0.1083     0.6116
A_3     C     0.6696     0.4668     0.4104
A_1     C     0.6408     0.0424     0.1179
A_0     C     0.0942     0.0602     0.0049
A_1     C     0.5666     0.0977     0.926
A_1     C     0.5962     0.7392     0.9985
A_1     C     0.4381     0.7528     0.821
A_1     C     0.6588     0.57     0.9306
A_3     C     0.006     0.6592     0.0496
A_1     C     0.0753     0.7589     0.8764
A_0     C     0.1299     0.1354     0.6871
A_2     C     0.6655     0.7393     0.8042
A_3     C     0.3603     0.6554     0.8169
A_3     C     0.1075     0.4715     0.3278
A_0     C     0.747     0.9524     0.1166
A_3     C     0.7293     0.321     0.987
A_2     C     0.4617     0.9315     0.279
A_0     C     0.6864     0.4234     0.2977
A_1     C     0.6032     0.3047     0.8416
A_0     C     0.5439     0.8592     0.6198
A_1     C     0.9071     0.2172     0.8879
A_0     C     0.5228     0.4069     0.48
A_1     C     0.3575     0.1551     0.6046
A_3     C     0.4804     0.39     0.8427
A_2     C     0.3027     0.0782     0.8093
A_3     C     0.4978     0.8716     0.436
A_0     C     0.1946     0.4745     0.7017
A_1     C     0.9372     0.6644     0.1925
A_2     C     0.2556     0.4762     0.2978
A_0     C     0.8612     0.5191     0.2786
A_1     C     0.4387     0.8508     0.3648
A_0     C     0.5253     0.9319     0.2755
A_0     C     0.4192     0.7641     0.4766
A_1     C     0.0672     0.663     0.6313
A_2     C     0.4752     0.9258     0.5245
A_0     C     0.6576     0.9321     0.9013
A_3     C     0.8044     0.0475     0.2205
A_3     C     0.9723     0.3266     0.6796
A_0     C     0.4618     0.3706     0.5235
A_2     C     0.3927     0.1595     0.2311
A_1     C     0.3849     0.0856     0.4655
A_2     C     0.2667     0.3568     0.9658
A_1     C     0.0477     0.6173     0.3167
A_0     C     0.7473     0.5401     0.7846
A_0     C     0.113     0.7012     0.0692
A_2     C     0.3136     0.6061     0.9306
A_0     C     0.6839     0.1266     0.3611
A_1     C     0.2074     0.9408     0.2193
A_2     C     0.1978     0.377     0.0831
A_3     C     0.1773     0.8907     0.0037
A_1     C     0.5393     0.1454     0.122
A_3     C     0.9865     0.7629     0.9164
A_3     C     0.8128     0.5956     0.2557
A_2     C     0.263     0.5605     0.523
A_2     C     0.961     0.4494     0.8777
A_2     C     0.5732     0.2358     0.0765
A_0     C     0.8158     0.821     0.0748
A_3     C     0.193     0.9735     0.9405
A_2     C     0.3649     0.9662     0.7383
A_3     C     0.2751     0.7229     0.7012
A_0     C     0.319     0.519     0.98
A_3     C     0.3557     0.5808     0.1994
A_3     C     0.2738     0.0234     0.9567
A_1     C     0.7206     0.9601     0.6254
A_0     C     0.1746     0.0693     0.3537
A_0     C     0.3581     0.2189     0.0274
A_3     C     0.5399     0.8438     0.8923
A_2     C     0.345     0.9134     0.5647
A_1     C     0.3647     0.2187     0.3045
A_1     C     0.363     0.6008     0.0641
A_0     C     0.0577     0.7021     0.6796
A_1     C     0.0412     0.9716     0.9943
A_1     C     0.5925     0.2844     0.6689
A_3     C     0.0647     0.9728     0.5552
A_3     C     0.2427     0.7738     0.759
A_0     C     0.3858     0.7794     0.3392
A_2     C     0.0554     0.3206     0.346
A_2     C     0.8747     0.7681     0.6964
A_3     C     0.6181     0.1433     0.7021
A_0     C     0.4582     0.5296     0.5248
A_0     C     0.9784     0.5672     0.0311
A_0     C     0.8862     0.1211     0.7148
A_3     C     0.9523     0.3213     0.3568
A_0     C     0.1763     0.7331     0.5182
A_2     C     0.2939     0.7957     0.7649
A_3     C     0.2236     0.6992     0.5539
A_1     C     0.0565     0.8501     0.6179
A_3     C     0.4487     0.6805     0.2567
A_2     C     0.9209     0.3423     0.8391
A_3     C     0.1165     0.3248     0.2883
A_2     C     0.4058     0.2987     0.0851
A_0     C     0.6553     0.3031     0.3608
A_1     C     0.6855     0.3671     0.4575
A_3     C     0.2377     0.6782     0.7823
A_1     C     0.6864     0.8464     0.7892
A_3     C     0.6567     0.7494     0.8849
A_2     C     0.024     0.5344     0.9549
A_3     C     0.2613     0.3059     0.6225
A_0     C     0.3155     0.738     0.318
A_2     C     0.5486     0.5326     0.2579
A_1     C     0.5711     0.4215     0.0837
A_0     C     0.8788     0.5651     0.2024
A_0     C     0.7745     0.8179     0.8138
A_0     C     0.7674     0.9715     0.1081
A_1     C     0.8818     0.1314     0.0626
A_1     C     0.731     0.3628     0.7662
A_3     C     0.8727     0.2734     0.8146
A_1     C     0.1561     0.528     0.1364
A_2     C     0.689     0.0455     0.4191
A_3     C     0.1978     0.7131     0.1836
A_3     C     0.1785     0.3512     0.2457
A_3     C     0.5254     0.7003     0.9689
A_0     C     0.357     0.4037     0.7762
A_0     C     0.1646     0.3842     0.7905
A_1     C     0.6574     0.6638     0.8289
A_3     C     0.6134     0.7732     0.9064
A_3     C     0.0262     0.6327     0.789
A_3     C     0.9346     0.2497     0.4425
A_2     C     0.7993     0.4389     0.3335
A_0     C     0.3383     0.9901     0.3784
A_1     C     0.855     0.3343     0.9752
A_2     C     0.8959     0.0779     0.674
A_1     C     0.1453     0.9467     0.3561
A_0     C     0.7553     0.9369     0.7343
A_1     C     0.7055     0.0105     0.1576
A_0     C     0.5349     0.163     0.4318
A_1     C     0.0006     0.8834     0.3512
A_3     C     0.3755     0.7527     0.0626
A_2     C     0.9111     0.8811     0.1604
A_2     C     0.0692     0.4645     0.366
A_1     C     0.3212     0.1781     0.8196
A_2     C     0.8519     0.7666     0.0138
A_0     C     0.1335     0.2669     0.9252
A_2     C     0.3829     0.6843     0.0912
A_1     C     0.1021     0.7169     0.2133
A_1     C     0.1567     0.7224     0.5847
A_2     C     0.799     0.0368     0.9677
A_2     C     0.1462     0.2703     0.9804
A_2     C     0.9681     0.6969     0.1625
A_0     C     0.4651     0.5179     0.7398
A_3     C     0.9774     0.7965     0.5177
A_1     C     0.2329     0.9451     0.9837
A_3     C     0.4684     0.1395     0.4326
A_0     C     0.0639     0.4798     0.9316
A_0     C     0.8466     0.6039     0.2119
A_3     C     0.5367     0.1035     0.5886
A_0     C     0.2442     0.8062     0.9887
A_1     C     0.6999     0.3008     0.8476
A_2     C     0.3617     0.9808     0.1283
A_1     C     0.5924     0.0225     0.5039
A_2     C     0.505     0.9262     0.5719
A_2     C     0.5339     0.7687     0.0921
A_3     C     0.0315     0.1452     0.093
A_0     C     0.8649     0.1897     0.5859
A_1     C     0.985     0.3006     0.6626
A_2     C     0.4812     0.8418     0.948
A_1     C     0.1659     0.0423     0.3149
A_2     C     0.6982     0.5484     0.3757
A_1     C     0.8396     0.2897     0.886
A_2     C     0.693     0.7124     0.2027
A_0     C     0.9535     0.7359     0.1104
A_2     C     0.7489     0.0912     0.7539
A_3     C     0.2916     0.2389     0.8037
A_3     C     0.8137     0.1446     0.6648
A_1     C     0.7484     0.588     0.7777
A_1     C     0.9611     0.3557     0.4278
A_3     C     0.0466     0.5672     0.5367
A_0     C     0.1334     0.9109     0.2692
A_0     C     0.7513     0.0433     0.1693
A_0     C     0.5219     0.2272     0.0114
A_2     C     0.3767     0.8077     0.306
A_2     C     0.7043     0.8351     0.3984
A_3     C     0.4323     0.6439     0.8969
A_0     C     0.5864     0.4271     0.7919
A_2     C     0.9409     0.7085     0.1889
A_0     C     0.6794     0.5209     0.9804
A_1     C     0.3017     0.4613     0.043
A_1     C     0.9687     0.1662     0.1018
A_3     C     0.5374     0.9466     0.9533
A_0     C     0.5406     0.4824     0.3673
A_1     C     0.1538     0.0315     0.6004
A_2     C     0.9701     0.4991     0.5957
A_2     C     0.3795     0.8156     0.6503
A_3     C     0.0407     0.3761     0.5364
A_3     C     0.6789     0.7278     0.0924
A_2     C     0.7881     0.8097     0.5713
A_3     C     0.8901     0.8235     0.424
A_0     C     0.2167     0.5971     0.8552
A_3     C     0.1015     0.6897     0.5192
A_0     C     0.6835     0.2007     0.5173
A_0     C     0.647     0.0698     0.4795
A_1     C     0.4664     0.8134     0.484
A_2     C     0.6851     0.4162     0.801
A_2     C     0.3367     0.13     0.5387
A_0     C     0.1147     0.1102     0.199
A_1     C     0.0195     0.6383     0.6928
A_3     C     0.7694     0.1071     0.1291
A_2     C     0.6683     0.7186     0.5565
A_1     C     0.5274     0.2209     0.7519
A_3     C     0.5809     0.7038     0.7924
A_0     C     0.3681     0.9967     0.4329
A_2     C     0.0621     0.4159     0.8008
A_1     C     0.4186     0.8605     0.2244
A_3     C     0.6983     0.7163     0.6419
A_2     C     0.5489     0.9789     0.3603
A_1     C     0.3219     0.8033     0.6406
A_2     C     0.6946     0.6007     0.2917
A_2     C     0.851     0.0882     0.6263
A_1     C     0.5278     0.348     0.0291
A_1     C     0.5588     0.9373     0.4926
A_1     C     0.1244     0.6202     0.7814
A_3     C     0.3339     0.0932     0.0319
A_3     C     0.8759     0.8413     0.1826
A_2     C     0.191     0.3335     0.5284
A_2     C     0.3805     0.1998     0.0845
A_2     C     0.1094     0.6294     0.9145
A_2     C     0.535     0.2822     0.3357
A_1     C     0.8759     0.9695     0.3372
A_0     C     0.9345     0.1626     0.8447
A_1     C     0.332     0.5002     0.4664
A_1     C     0.8944     0.8824     0.1592
A_2     C     0.1383     0.101     0.003
A_1     C     0.0733     0.6566     0.5578
A_3     C     0.1988     0.0257     0.2417
A_1     C     0.3043     0.9384     0.7458
A_3     C     0.4932     0.5975     0.8155
A_0     C     0.0517     0.352     0.5208
A_3     C     0.0896     0.0373     0.7373
A_2     C     0.7989     0.4062     0.4919
A_3     C     0.3799     0.8819     0.1784
A_3     C     0.5833     0.2957     0.0391
A_2     C     0.8765     0.4989     0.2347
A_1     C     0.568     0.5005     0.0192
A_0     C     0.8862     0.5304     0.1399
A_2     C     0.7992     0.4208     0.8201
A_2     C     0.3575     0.2447     0.766
A_0     C     0.2649     0.9137     0.3104
A_1     C     0.9973     0.2676     0.0153
A_3     C     0.4988     0.2046     0.3553
A_1     C     0.1522     0.5708     0.3698
A_1     C     0.2318     0.4465     0.4924
A_2     C     0.2223     0.494     0.4739
A_3     C     0.3686     0.1055     0.0513
A_2     C     0.8972     0.2659     0.4772
A_2     C     0.9241     0.9002     0.6256
A_0     C     0.1843     0.9061     0.9704
A_0     C     0.9219     0.499     0.6361
A_3     C     0.3507     0.9984     0.9841
A_0     C     0.7104     0.1015     0.369
A_1     C     0.4241     0.489     0.7531
A_1     C     0.1055     0.2639     0.3688
A_1     C     0.4733     0.8899     0.5339
A_1     C     0.3065     0.4228     0.0872
A_1     C     0.0048     0.4784     0.0921
A_3     C     0.908     0.5225     0.338
A_3     C     0.1279     0.0466     0.5722
A_1     C     0.7854     0.4     0.0602
A_3     C     0.5074     0.0374     0.5498
A_2     C     0.017     0.701     0.8917
A_2     C     0.9615     0.4744     0.6512
A_1     C     0.0026     0.1648     0.0263
A_3     C     0.8628     0.7303     0.4008
A_3     C     0.2875     0.8965     0.0869
A_1     C     0.6202     0.6461     0.6747
A_1     C     0.4382     0.2215     0.7346
A_3     C     0.24     0.7188     0.6783
A_1     C     0.7367     0.304     0.1554
A_0     C     0.4115     0.7851     0.3349
A_1     C     0.7853     0.995     0.0417
A_2     C     0.6854     0.2687     0.4877
A_2     C     0.5615     0.6694     0.222
A_3     C     0.2587     0.3084     0.6344
A_3     C     0.4687     0.253     0.1945
A_2     C     0.7372     0.1814     0.3322
A_1     C     0.9279     0.0467     0.1164
A_2     C     0.0829     0.2141     0.0399
A_2     C     0.7246     0.8981     0.8167
A_1     C     0.3312     0.9767     0.0953
A_0     C     0.12     0.8979     0.3923
A_2     C     0.1016     0.7406     0.2326
A_1     C     0.6069     0.4972     0.4784
A_0     C     0.5918     0.4577     0.2942
A_1     C     0.1709     0.0219     0.0151
A_0     C     0.172     0.8398     0.7242
A_1     C     0.9853     0.7349     0.1664
A_1     C     0.9355     0.2906     0.6738
A_2     C     0.2691     0.8583     0.059
A_2     C     0.8033     0.6459     0.1384
A_0     C     0.6752     0.864     0.8358
A_1     C     0.7349     0.7548     0.794
A_3     C     0.684     0.525     0.3471
A_1     C     0.0296     0.3922     0.3485
A_0     C     0.571     0.6091     0.7952
A_0     C     0.8917     0.2887     0.5604
A_1     C     0.6888     0.1267     0.8136
A_2     C     0.8527     0.7036     0.2614
A_1     C     0.2566     0.9397     0.9998
A_0     C     0.2471     0.3835     0.3418
A_1     C     0.0961     0.7922     0.7496
A_3     C     0.1292     0.9308     0.3027
A_3     C     0.8418     0.0734     0.4951
A_1     C     0.4583     0.315     0.0964
A_3     C     0.942     0.7916     0.7379
A_3     C     0.8424     0.5537     0.5209
A_1     C     0.9119     0.4532     0.0079
A_3     C     0.6388     0.9314     0.5185
A_2     C     0.9244     0.1546     0.0254
A_3     C     0.5288     0.9207     0.2101
A_0     C     0.3602     0.9173     0.9901
A_2     C     0.2013     0.4547     0.2894
A_2     C     0.074     0.2351     0.0524
A_2     C     0.3399     0.2461     0.7453
A_3     C     0.4615     0.1315     0.4373
A_3     C     0.9567     0.6121     0.1084
A_2     C     0.9473     0.5646     0.9906
A_3     C     0.6292     0.6221     0.8039
A_2     C     0.2135     0.7509     0.6555
A_2     C     0.0013     0.2567     0.8663
A_3     C     0.5047     0.2196     0.8469
A_3     C     0.9134     0.4281     0.7746
A_2     C     0.4817     0.8293     0.1814
A_2     C     0.9701     0.8096     0.6796
A_3     C     0.3827     0.1232     0.0979
A_2     C     0.9754     0.6489     0.7104
A_3     C     0.3443     0.9115     0.6943
A_2     C     0.7061     0.7402     0.4255
A_3     C     0.8897     0.2074     0.5362
A_2     C     0.0445     0.5833     0.0566
A_2     C     0.4021     0.3647     0.8641
A_0     C     0.289     0.124     0.5106
A_3     C     0.2016     0.9085     0.8038
A_2     C     0.719     0.3452     0.2327
A_2     C     0.1775     0.8618     0.7541
A_2     C     0.3736     0.6918     0.5978
A_2     C     0.4364     0.3052     0.5635
A_1     C     0.3788     0.9811     0.6192
A_1     C     0.9274     0.7259     0.3488
A_2     C     0.0674     0.8082     0.5772
A_0     C     0.6695     0.5927     0.7258
A_1     C     0.1219     0.6451     0.2358
A_0     C     0.3104     0.621     0.2901
A_2     C     0.2146     0.3173     0.474
A_0     C     0.6592     0.4863     0.5328
A_3     C     0.4079     0.1167     0.1143
A_0     C     0.6824     0.9435     0.3063
A_0     C     0.6064     0.4997     0.8498
A_2     C     0.1724     0.4846     0.2692
A_1     C     0.0423     0.5102     0.4189
A_2     C     0.7808     0.2397     0.7523
A_0     C     0.3202     0.9686     0.2175
A_3     C     0.1096     0.2608     0.3497
A_2     C     0.794     0.3284     0.9891
A_1     C     0.0512     0.1742     0.38
A_0     C     0.4028     0.3401     0.0475
A_0     C     0.3422     0.8635     0.526
A_0     C     0.0344     0.2168     0.9563
A_2     C     0.7173     0.5726     0.9639
A_0     C     0.9537     0.7063     0.3164
A_0     C     0.221     0.5703     0.331
A_3     C     0.7034     0.7778     0.6514
A_0     C     0.8815     0.8405     0.1447
A_0     C     0.8818     0.2165     0.3245
A_0     C     0.6255     0.3726     0.7846
A_0     C     0.235     0.4825     0.548
A_2     C     0.436     0.2132     0.993
A_3     C     0.6764     0.5521     0.256
A_1     C     0.3912     0.7568     0.1447
A_3     C     0.3147     0.3043     0.7442
A_0     C     0.3042     0.6447     0.7379
A_2     C     0.0435     0.0585     0.3838
A_2     C     0.3561     0.6722     0.9171
A_0     C     0.547     0.0628     0.3081
A_3     C     0.1653     0.8118     0.264
A_0     C     0.773     0.3641     0.8927
A_0     C     0.1503     0.2433     0.6978
A_2     C     0.164     0.6873     0.2932
A_1     C     0.1255     0.6153     0.1662
A_0     C     0.922     0.3401     0.0954
A_3     C     0.7709     0.6543     0.8532
A_3     C     0.7347     0.1324     0.4778
A_1     C     0.1433     0.3545     0.5728
A_2     C     0.9085     0.7606     0.2149
A_1     C     0.9208     0.8097     0.8886
A_3     C     0.4994     0.0312     0.1727
A_3     C     0.8196     0.7923     0.0413
A_3     C     0.7641     0.5487     0.1422
A_2     C     0.1577     0.9867     0.34
A_1     C     0.4315     0.9393     0.2045
A_3     C     0.0207     0.9611     0.5563
A_1     C     0.9642     0.1612     0.6783
A_3     C     0.1102     0.9609     0.4004
A_3     C     0.0333     0.0672     0.0933
A_2     C     0.2637     0.0994     0.2222
A_1     C     0.6026     0.2762     0.7037
A_2     C     0.745     0.3841     0.1937
A_0     C     0.9416     0.4746     0.4978
A_3     C     0.7901     0.1639     0.7602
A_0     C     0.8356     0.7643     0.9736
A_1     C     0.7727     0.3151     0.4505
A_3     C     0.5258     0.8971     0.2638
A_1     C     0.5562     0.4752     0.2761
A_0     C     0.2943     0.8895     0.4375
A_0     C     0.1188     0.914     0.8856
A_2     C     0.7435     0.861     0.0656
A_1     C     0.1295     0.0671     0.4941
A_1     C     0.3803     0.2344     0.8493
A_3     C     0.8712     0.9189     0.9801
A_0     C     0.2645     0.3472     0.302
A_2     C     0.2272     0.6804     0.5887
A_3     C     0.7885     0.8614     0.0691
A_2     C     0.9833     0.2745     0.3505
A_0     C     0.1924     0.9454     0.331
A_3     C     0.8792     0.9136     0.7287
A_3     C     0.8944     0.2122     0.6689
A_0     C     0.9254     0.0582     0.3179
A_3     C     0.4321     0.7816     0.243
A_2     C     0.526     0.3196     0.2294
A_1     C     0.9207     0.0072     0.1991
A_3     C     0.9313     0.6241     0.8949
A_3     C     0.7641     0.9888     0.5901
A_1     C     0.1098     0.222     0.5623
A_0     C     0.9913     0.2099     0.2265
A_3     C     0.2151     0.8214     0.8075
A_0     C     0.3725     0.7112     0.3308
A_3     C     0.9077     0.5052     0.7784
A_2     C     0.0951     0.1529     0.3362
A_2     C     0.4767     0.4801     0.5327
A_3     C     0.5295     0.4982     0.2413
A_0     C     0.2844     0.2078     0.3321
A_2     C     0.3929     0.6188     0.8216
A_0     C     0.8686     0.1533     0.9909
A_3     C     0.6996     0.0349     0.2164
A_1     C     0.9291     0.0617     0.4632
A_3     C     0.5394     0.3732     0.1853
A_1     C     0.0135     0.1283     0.643
A_1     C     0.4932     0.5638     0.1993
A_0     C     0.0319     0.5111     0.6124
A_1     C     0.4438     0.1403     0.5089
A_0     C     0.3899     0.4838     0.6397
A_2     C     0.6753     0.6102     0.3938
A_0     C     0.0824     0.2726     0.0779
A_3     C     0.478     0.6022     0.1816
A_1     C     0.7957     0.8268     0.4831
A_3     C     0.6801     0.395     0.2584
A_0     C     0.0659     0.8585     0.2368
A_3     C     0.6668     0.3212     0.6766
A_0     C     0.9545     0.8718     0.9897
A_2     C     0.0765     0.2917     0.305
A_2     C     0.0629     0.4001     0.7669
A_3     C     0.2986     0.9027     0.9206
A_1     C     0.4177     0.6519     0.6764
A_0     C     0.2784     0.8213     0.3478
A_0     C     0.2298     0.7023     0.7261
A_0     C     0.001     0.6122     0.1533
A_1     C     0.6858     0.8465     0.5304
A_1     C     0.2487     0.8618     0.9789
A_3     C     0.1715     0.1112     0.955
A_3     C     0.1211     0.8977     0.4321
A_3     C     0.1613     0.4737     0.0887
A_3     C     0.8379     0.5635     0.0347
A_2     C     0.0164     0.3803     0.4879
A_0     C     0.4358     0.0365     0.8556
A_1     C     0.2536     0.1262     0.7646
A_2     C     0.3368     0.6056     0.4373
A_2     C     0.9594     0.9648     0.4341
A_3     C     0.6695     0.6172     0.7535
A_3     C     0.7957     0.0689     0.7348
A_0     C     0.4562     0.8923     0.7682
A_0     C     0.4584     0.7936     0.4393
A_0     C     0.4998     0.5052     0.0951
A_1     C     0.441     0.7853     0.1595
A_2     C     0.1943     0.0417     0.6301
A_1     C     0.5691     0.7207     0.0548
A_3     C     0.5864     0.9849     0.709
A_2     C     0.3118     0.0555     0.8617
A_0     C     0.1559     0.6727     0.011
A_1     C     0.2445     0.0566     0.6661
A_2     C     0.2509     0.9253     0.2439
A_1     C     0.4438     0.9159     0.0142
A_2     C     0.3586     0.1705     0.2622
A_3     C     0.4588     0.6219     0.3952
A_1     C     0.401     0.0922     0.0675
A_1     C     0.5081     0.9033     0.0479
A_2     C     0.7816     0.1997     0.6756
A_2     C     0.6321     0.921     0.4847
A_3     C     0.4148     0.5644     0.055
A_0     C     0.7791     0.9776     0.845
A_2     C     0.5033     0.6845     0.9599
A_0     C     0.81     0.6501     0.1052
A_1     C     0.65     0.9775     0.283
A_1     C     0.2089     0.1133     0.7842
A_0     C     0.4275     0.2114     0.8934
A_0     C     0.3872     0.0209     0.4147
A_1     C     0.5445     0.718     0.7088
A_3     C     0.7035     0.7778     0.0949
A_0     C     0.0803     0.2146     0.5253
A_0     C     0.8258     0.5752     0.4478
A_1     C     0.3915     0.1988     0.2771
A_3     C     0.7998     0.7264     0.0403
A_3     C     0.7175     0.0113     0.1994
A_1     C     0.2456     0.3105     0.0567
A_1     C     0.279     0.5532     0.5767
A_2     C     0.8002     0.8964     0.9588
A_1     C     0.1975     0.4624     0.3594
A_3     C     0.258     0.8468     0.22
A_2     C     0.5945     0.7258     0.9558
A_3     C     0.7638     0.5361     0.3538
A_2     C     0.3059     0.9252     0.1147
A_2     C     0.1318     0.3345     0.9235
