MAT-18

loop_
_symmetry_equiv_pos_as_xyz
  x,y,z
_cell_length_a          17.2295
_cell_length_b          50.2384
_cell_length_c          17.3466
_cell_angle_alpha       90.0000
_cell_angle_beta        90.0000
_cell_angle_gamma       90.0000
loop_
_atom_site_label
_atom_site_type_symbol
_atom_site_fract_x
_atom_site_fract_y
_atom_site_fract_z
A_3     C     0.5422     0.9024     0.2345
A_0     C     0.6213     0.4109     0.3671
A_0     C     0.1245     0.934     0.4223
A_3     C     0.6152     0.8725     0.1495
A_0     C     0.1422     0.8906     0.6712
A_1     C     0.7591     0.7976     0.9934
A_2     C     0.0111     0.1     0.9366
A_1     C     0.5932     0.6392     0.9908
A_2     C     0.429     0.4467     0.2581
A_3     C     0.2777     0.8649     0.9103
A_2     C     0.7135     0.7099     0.7179
A_1     C     0.5309     0.5977     0.2088
A_0     C     0.3003     0.6316     0.4169
A_2     C     0.6535     0.4603     0.128
A_3     C     0.8132     0.5694     0.3898
A_3     C     0.4013     0.0607     0.2582
A_3     C     0.456     0.5487     0.253
A_1     C     0.6709     0.2804     0.6191
A_0     C     0.5858     0.4407     0.6962
A_3     C     0.6992     0.2594     0.1785
A_0     C     0.1589     0.1803     0.3757
A_0     C     0.7017     0.7183     0.651
A_0     C     0.5102     0.7384     0.4499
A_2     C     0.4327     0.347     0.3909
A_2     C     0.9988     0.3761     0.9866
A_0     C     0.2888     0.8237     0.2237
A_2     C     0.3494     0.6133     0.5202
A_3     C     0.1291     0.9272     0.0276
A_1     C     0.7407     0.6153     0.207
A_1     C     0.6615     0.5803     0.1566
A_0     C     0.537     0.8488     0.8529
A_3     C     0.1449     0.7543     0.8787
A_0     C     0.3078     0.7042     0.3841
A_2     C     0.8426     0.0557     0.6223
A_3     C     0.7837     0.8111     0.8636
A_3     C     0.6487     0.4375     0.1432
A_1     C     0.4678     0.0639     0.4589
A_0     C     0.9217     0.4651     0.2669
A_0     C     0.6623     0.5696     0.8273
A_2     C     0.4947     0.3487     0.0415
A_1     C     0.3789     0.3249     0.814
A_1     C     0.7713     0.5552     0.5336
A_0     C     0.7528     0.2139     0.3458
A_1     C     0.5005     0.8055     0.5939
A_3     C     0.8742     0.4325     0.8773
A_0     C     0.9535     0.9999     0.4995
A_0     C     0.5309     0.5802     0.2142
A_1     C     0.3696     0.0338     0.4177
A_1     C     0.0606     0.4664     0.0742
A_2     C     0.0508     0.7558     0.486
A_3     C     0.6472     0.5219     0.7
A_3     C     0.3824     0.2731     0.2106
A_0     C     0.4316     0.5766     0.9848
A_0     C     0.7085     0.3285     0.0804
A_3     C     0.6033     0.5964     0.8551
A_2     C     0.8888     0.4909     0.2909
A_3     C     0.7299     0.746     0.3717
A_3     C     0.7572     0.8927     0.043
A_2     C     0.2665     0.3858     0.425
A_3     C     0.6716     0.6194     0.7641
A_2     C     0.3549     0.7583     0.789
A_2     C     0.4533     0.8227     0.4962
A_3     C     0.3586     0.1387     0.458
A_0     C     0.4236     0.61     0.8384
A_1     C     0.2336     0.7565     0.2114
A_2     C     0.3311     0.6687     0.9002
A_3     C     0.493     0.7149     0.3497
A_1     C     0.3905     0.5831     0.8076
A_3     C     0.5389     0.0307     0.5287
A_0     C     0.6123     0.4511     0.1313
A_0     C     0.9103     0.8238     0.3161
A_2     C     0.3958     0.7562     0.2817
A_2     C     0.0777     0.7884     0.9554
A_2     C     0.0723     0.4958     0.8382
A_2     C     0.2079     0.1291     0.3158
A_3     C     0.3455     0.3742     0.8667
A_2     C     0.6754     0.723     0.476
A_0     C     0.9452     0.9886     0.8536
A_1     C     0.8187     0.267     0.1112
A_2     C     0.4752     0.4487     0.2951
A_3     C     0.0013     0.5951     0.0149
A_1     C     0.3193     0.3608     0.0843
A_2     C     0.1216     0.4521     0.4348
A_2     C     0.6068     0.5769     0.9898
A_1     C     0.6538     0.2683     0.3852
A_1     C     0.8791     0.1913     0.7948
A_2     C     0.018     0.9019     0.3129
A_2     C     0.0244     0.728     0.4568
A_2     C     0.1662     0.8111     0.6454
A_0     C     0.0913     0.4612     0.9526
A_3     C     0.762     0.3493     0.1405
A_3     C     0.9979     0.5525     0.9603
A_2     C     0.2383     0.6939     0.6396
A_3     C     0.927     0.6086     0.211
A_1     C     0.3104     0.1425     0.1905
A_2     C     0.4605     0.1307     0.5245
A_2     C     0.5144     0.0303     0.0267
A_1     C     0.1489     0.4774     0.0049
A_1     C     0.5988     0.4587     0.3003
A_0     C     0.2751     0.5005     0.9067
A_2     C     0.2226     0.2625     0.572
A_0     C     0.6344     0.625     0.9846
A_1     C     0.3513     0.0257     0.753
A_1     C     0.004     0.7066     0.9355
A_0     C     0.7105     0.8227     0.9042
A_2     C     0.5876     0.8123     0.2703
A_1     C     0.9196     0.3272     0.2363
A_2     C     0.8407     0.0992     0.2623
A_0     C     0.4546     0.9327     0.5854
A_2     C     0.8014     0.8125     0.1601
A_1     C     0.8001     0.6212     0.619
A_3     C     0.1938     0.3879     0.4817
A_0     C     0.412     0.7298     0.2948
A_1     C     0.0375     0.5388     0.9187
A_0     C     0.9367     0.1274     0.6052
A_3     C     0.1502     0.0613     0.3925
A_1     C     0.1185     0.6925     0.6248
A_3     C     0.3109     0.1115     0.1229
A_1     C     0.3363     0.5515     0.551
A_1     C     0.9892     0.2687     0.698
A_2     C     0.0648     0.8731     0.0762
A_2     C     0.3234     0.8441     0.3995
A_1     C     0.3356     0.1002     0.5331
A_0     C     0.3319     0.3358     0.556
A_1     C     0.6411     0.1601     0.6241
A_2     C     0.7839     0.8539     0.7017
A_2     C     0.3389     0.2605     0.3282
A_1     C     0.5707     0.8251     0.0814
A_2     C     0.5727     0.2517     0.5395
A_3     C     0.5749     0.6122     0.4342
A_0     C     0.1434     0.944     0.4665
A_3     C     0.8268     0.125     0.2828
A_2     C     0.8878     0.1519     0.5877
A_3     C     0.2144     0.6911     0.1133
A_1     C     0.2997     0.5815     0.2395
A_2     C     0.411     0.4054     0.6253
A_2     C     0.3521     0.7221     0.5039
A_1     C     0.9876     0.5423     0.9278
A_3     C     0.7433     0.5013     0.2484
A_2     C     0.6305     0.6745     0.7541
A_3     C     0.1875     0.4416     0.1197
A_1     C     0.1575     0.0777     0.2108
A_3     C     0.8831     0.627     0.1457
A_0     C     0.9833     0.4317     0.7271
A_0     C     0.8101     0.1315     0.1678
A_3     C     0.2477     0.1949     0.5921
A_2     C     0.8969     0.7437     0.6119
A_0     C     0.0995     0.5028     0.4457
A_1     C     0.8309     0.3423     0.1089
A_1     C     0.012     0.2047     0.3547
A_3     C     0.0185     0.3581     0.0679
A_3     C     0.7628     0.5172     0.227
A_1     C     0.5138     0.177     0.5512
A_2     C     0.805     0.6573     0.5127
A_1     C     0.6641     0.7541     0.6629
A_3     C     0.1873     0.6958     0.2074
A_1     C     0.4974     0.5282     0.4308
A_2     C     0.7562     0.0235     0.5477
A_2     C     0.2883     0.6933     0.2665
A_1     C     0.1263     0.9294     0.5668
A_3     C     0.9174     0.2462     0.3284
A_2     C     0.3009     0.4142     0.9018
A_2     C     0.5924     0.9928     0.5425
A_0     C     0.3082     0.4264     0.5973
A_0     C     0.0089     0.9992     0.3954
A_3     C     0.9049     0.4417     0.103
A_1     C     0.4363     0.7457     0.1489
A_0     C     0.278     0.3852     0.6303
A_1     C     0.6398     0.5181     0.6992
A_2     C     0.8432     0.3648     0.6418
A_2     C     0.9908     0.6834     0.5824
A_1     C     0.7473     0.107     0.2024
A_1     C     0.8458     0.7049     0.3606
A_0     C     0.4198     0.6148     0.2952
A_1     C     0.1501     0.58     0.0522
A_0     C     0.9674     0.1014     0.9065
A_2     C     0.6392     0.4653     0.5461
A_3     C     0.924     0.7921     0.597
A_2     C     0.5533     0.4925     0.8029
A_2     C     0.2758     0.2228     0.6618
A_2     C     0.5968     0.841     0.021
A_3     C     0.1257     0.3531     0.9964
A_0     C     0.8532     0.6206     0.4048
A_3     C     0.3981     0.4172     0.0721
A_1     C     0.2675     0.6085     0.6684
A_3     C     0.4153     0.6055     0.5042
A_3     C     0.5287     0.9834     0.116
A_2     C     0.7546     0.5351     0.9607
A_2     C     0.458     0.3076     0.1109
A_3     C     0.1319     0.7692     0.9506
A_0     C     0.8771     0.6231     0.8143
A_2     C     0.9357     0.5323     0.8138
A_0     C     0.3021     0.0584     0.7178
A_1     C     0.3972     0.9339     0.5576
A_3     C     0.4441     0.0448     0.4246
A_2     C     0.7713     0.6784     0.2203
A_1     C     0.8307     0.1992     0.0481
A_3     C     0.8005     0.5417     0.602
A_0     C     0.5751     0.7792     0.6029
A_3     C     0.7554     0.5623     0.2486
A_1     C     0.7643     0.9767     0.169
A_2     C     0.2344     0.1118     0.8933
A_2     C     0.8008     0.412     0.6369
A_0     C     0.1438     0.5445     0.8607
A_3     C     0.077     0.1707     0.555
A_3     C     0.6593     0.0518     0.6766
A_0     C     0.253     0.3568     0.618
A_0     C     0.4851     0.6703     0.3987
A_1     C     0.484     0.4523     0.7756
A_1     C     0.8193     0.7842     0.9325
A_2     C     0.3432     0.1266     0.7343
A_1     C     0.3902     0.6407     0.5069
A_0     C     0.9231     0.866     0.292
A_2     C     0.4639     0.3108     0.2808
A_2     C     0.2414     0.2344     0.0666
A_2     C     0.4778     0.792     0.8953
A_3     C     0.6027     0.3566     0.887
A_3     C     0.1787     0.0842     0.8544
A_3     C     0.1477     0.7814     0.415
A_3     C     0.4108     0.3565     0.2328
A_0     C     0.5857     0.8407     0.4911
A_0     C     0.6734     0.9006     0.9371
A_3     C     0.4365     0.1475     0.521
A_2     C     0.1197     0.1521     0.7627
A_2     C     0.9058     0.5682     0.4353
A_2     C     0.4354     0.7887     0.8731
A_2     C     0.582     0.9063     0.3431
A_1     C     0.1009     0.5096     0.9904
A_1     C     0.355     0.6484     0.7463
A_2     C     0.5946     0.5093     0.4761
A_2     C     0.3333     0.3516     0.2467
A_1     C     0.8034     0.6963     0.2477
A_2     C     0.6727     0.6877     0.6507
A_1     C     0.8303     0.5828     0.0056
A_0     C     0.5058     0.5136     0.0236
A_1     C     0.807     0.1153     0.8959
A_2     C     0.8202     0.8189     0.3136
A_0     C     0.111     0.2451     0.6643
A_1     C     0.9859     0.5033     0.4946
A_2     C     0.5898     0.779     0.0585
A_3     C     0.7032     0.4015     0.445
A_1     C     0.7738     0.7029     0.4995
A_0     C     0.4346     0.1573     0.7665
A_3     C     0.9582     0.585     0.0727
A_2     C     0.9445     0.9508     0.2215
A_0     C     0.2692     0.3843     0.7559
A_0     C     0.465     0.6932     0.0721
A_2     C     0.2074     0.6553     0.0481
A_2     C     0.2514     0.503     0.1224
A_3     C     0.8984     0.6204     0.6644
A_1     C     0.8194     0.1408     0.636
A_1     C     0.9592     0.6918     0.3863
A_0     C     0.2183     0.9443     0.7846
A_0     C     0.5763     0.9531     0.0549
A_3     C     0.4421     0.1436     0.3232
A_2     C     0.761     0.5108     0.885
A_2     C     0.9874     0.9978     0.5908
A_0     C     0.4718     0.2563     0.3248
A_2     C     0.7189     0.1101     0.9761
A_3     C     0.9714     0.1389     0.9557
A_2     C     0.8886     0.6434     0.9027
A_3     C     0.1563     0.7417     0.6719
A_3     C     0.0878     0.747     0.1729
A_0     C     0.7951     0.8384     0.4591
A_2     C     0.9064     0.7828     0.7376
A_0     C     0.1848     0.1838     0.8809
A_1     C     0.2731     0.9917     0.6471
A_1     C     0.0922     0.9878     0.0603
A_0     C     0.7003     0.7485     0.5997
A_0     C     0.189     0.9472     0.0722
A_0     C     0.0931     0.9136     0.9231
A_2     C     0.9466     0.5445     0.8226
A_2     C     0.0992     0.1929     0.0476
A_1     C     0.5636     0.4797     0.3156
A_1     C     0.666     0.4134     0.4883
A_3     C     0.879     0.7045     0.6611
A_1     C     0.7378     0.9089     0.5057
A_3     C     0.1082     0.7592     0.4875
A_1     C     0.9861     0.3775     0.7647
A_2     C     0.3727     0.5472     0.0174
A_3     C     0.2116     0.8162     0.7458
A_0     C     0.5185     0.8385     0.5668
A_1     C     0.4575     0.898     0.8973
A_1     C     0.0452     0.8001     0.152
A_0     C     0.3148     0.5377     0.9222
A_2     C     0.8484     0.1684     0.6621
A_3     C     0.5298     0.4614     0.7724
A_2     C     0.6617     0.228     0.5539
A_2     C     0.2041     0.2825     0.7889
A_2     C     0.4336     0.5247     0.7752
A_3     C     0.9834     0.9602     0.7435
A_3     C     0.6788     0.0385     0.1408
A_1     C     0.11     0.3755     0.1541
A_0     C     0.6401     0.4678     0.3787
A_3     C     0.1088     0.253     0.6149
A_1     C     0.4101     0.2752     0.7603
A_1     C     0.5916     0.7813     0.6011
A_3     C     0.8052     0.8264     0.3909
A_3     C     0.223     0.3652     0.9959
A_2     C     0.3335     0.6188     0.7044
A_3     C     0.1113     0.9878     0.139
A_0     C     0.0392     0.2565     0.6028
A_1     C     0.8559     0.4109     0.7247
A_2     C     0.7879     0.0774     0.0778
A_0     C     0.7442     0.9383     0.5968
A_3     C     0.0346     0.6715     0.5297
A_2     C     0.7943     0.5722     0.4673
A_1     C     0.0773     0.788     0.0269
A_0     C     0.6854     0.4905     0.3896
A_3     C     0.0022     0.9896     0.5963
A_0     C     0.0253     0.7948     0.9105
A_0     C     0.842     0.4556     0.0172
A_3     C     0.251     0.3083     0.2359
A_3     C     0.4267     0.5085     0.6571
A_3     C     0.8363     0.2394     0.8078
A_2     C     0.011     0.3394     0.7026
A_2     C     0.8773     0.6098     0.2079
A_2     C     0.0942     0.0044     0.9395
A_0     C     0.4991     0.109     0.9471
A_0     C     0.0683     0.3176     0.7912
A_1     C     0.8154     0.317     0.1314
A_0     C     0.1335     0.6907     0.3496
A_3     C     0.6549     0.8299     0.0807
A_0     C     0.2509     0.0742     0.015
A_3     C     0.4137     0.1645     0.3143
A_3     C     0.2852     0.9707     0.2052
A_2     C     0.5007     0.196     0.0306
A_0     C     0.3745     0.1375     0.1436
A_0     C     0.6482     0.947     0.964
A_0     C     0.6145     0.3032     0.9478
A_1     C     0.4668     0.2807     0.2989
A_0     C     0.9353     0.9431     0.5728
A_2     C     0.9575     0.9692     0.264
A_0     C     0.9298     0.2748     0.8955
A_1     C     0.077     0.4866     0.9294
A_1     C     0.7613     0.0743     0.9758
A_3     C     0.5887     0.1007     0.544
A_3     C     0.5509     0.7851     0.0191
A_0     C     0.9966     0.7923     0.1259
A_1     C     0.2995     0.3603     0.6417
A_3     C     0.9425     0.3456     0.4081
A_3     C     0.0015     0.6831     0.966
A_1     C     0.1654     0.1532     0.9508
A_0     C     0.1723     0.9083     0.2057
A_0     C     0.364     0.9132     0.6943
A_2     C     0.8851     0.0449     0.945
A_0     C     0.6893     0.5622     0.183
A_1     C     0.4207     0.2964     0.6936
A_0     C     0.5088     0.8658     0.4289
A_3     C     0.331     0.9098     0.8572
A_1     C     0.77     0.0806     0.7566
A_1     C     0.1619     0.6231     0.5612
A_0     C     0.5623     0.4075     0.4178
A_1     C     0.744     0.7546     0.0607
A_2     C     0.5165     0.9257     0.0425
A_0     C     0.845     0.906     0.9092
A_1     C     0.1445     0.3169     0.0053
A_0     C     0.3281     0.0244     0.7625
A_1     C     0.3696     0.3688     0.6325
A_2     C     0.4581     0.9099     0.3422
A_0     C     0.2844     0.5637     0.2174
A_0     C     0.8315     0.7602     0.011
A_2     C     0.8035     0.0894     0.2613
A_1     C     0.2737     0.6067     0.5382
A_3     C     0.2499     0.0097     0.5269
A_2     C     0.1002     0.0091     0.6118
A_0     C     0.32     0.4788     0.93
A_1     C     0.5968     0.4946     0.025
A_0     C     0.2184     0.7844     0.5296
A_2     C     0.0892     0.1581     0.2351
A_2     C     0.9722     0.4284     0.6702
A_3     C     0.7431     0.3376     0.0412
A_0     C     0.2293     0.5681     0.6968
A_3     C     0.0998     0.0262     0.4332
A_1     C     0.5515     0.1638     0.3044
A_3     C     0.371     0.4678     0.4056
A_3     C     0.5399     0.8755     0.0232
A_0     C     0.2376     0.7991     0.8503
A_0     C     0.2407     0.1003     0.6444
A_1     C     0.0063     0.2683     0.9211
A_1     C     0.0217     0.4403     0.8944
A_3     C     0.605     0.2917     0.3431
A_1     C     0.9951     0.8043     0.0407
A_1     C     0.7821     0.5119     0.9607
A_1     C     0.4712     0.079     0.7154
A_1     C     0.9556     0.4525     0.8702
A_1     C     0.7538     0.4197     0.0261
A_3     C     0.0538     0.3029     0.3528
A_2     C     0.5668     0.4434     0.6366
A_3     C     0.6255     0.5452     0.5353
A_3     C     0.9393     0.5976     0.7654
A_1     C     0.4037     0.8082     0.8255
A_3     C     0.5211     0.6806     0.2974
A_3     C     0.1262     0.4776     0.9366
A_2     C     0.476     0.0814     0.7834
A_1     C     0.8017     0.1786     0.3257
A_3     C     0.0981     0.3131     0.4505
A_2     C     0.1783     0.3977     0.6198
A_3     C     0.7543     0.4484     0.4421
A_1     C     0.2051     0.7773     0.2578
A_0     C     0.9212     0.9809     0.0862
A_0     C     0.2961     0.0386     0.1138
A_3     C     0.6339     0.2008     0.8483
A_0     C     0.2075     0.9991     0.1668
A_0     C     0.4805     0.9509     0.4191
A_1     C     0.7234     0.7981     0.6844
A_3     C     0.5568     0.2374     0.3225
A_2     C     0.4689     0.2085     0.8352
A_0     C     0.5524     0.1558     0.8838
A_1     C     0.7685     0.4802     0.0131
A_1     C     0.1427     0.6722     0.1483
A_3     C     0.4925     0.9482     0.8473
A_0     C     0.4701     0.6077     0.6742
A_1     C     0.5234     0.1887     0.3037
A_3     C     0.5472     0.8759     0.291
A_1     C     0.2324     0.7709     0.7656
A_0     C     0.4575     0.0036     0.4237
A_0     C     0.1176     0.8227     0.4035
A_3     C     0.7585     0.2341     0.5273
A_3     C     0.4556     0.785     0.0365
A_1     C     0.3604     0.3623     0.2893
A_0     C     0.9592     0.5739     0.9006
A_0     C     0.2521     0.9405     0.1831
A_1     C     0.1948     0.2946     0.4914
A_0     C     0.0717     0.0044     0.0749
A_1     C     0.5602     0.0972     0.6999
A_2     C     0.1924     0.5157     0.6706
A_1     C     0.4677     0.5779     0.9999
A_1     C     0.8906     0.1458     0.144
A_3     C     0.5149     0.1191     0.0822
A_1     C     0.2045     0.7133     0.6722
A_2     C     0.7084     0.6421     0.2913
A_3     C     0.2654     0.4071     0.1113
A_3     C     0.4913     0.4564     0.0132
A_3     C     0.0585     0.7183     0.6771
A_1     C     0.2853     0.354     0.4705
A_0     C     0.6507     0.3639     0.8129
A_0     C     0.3459     0.4945     0.1195
A_1     C     0.2624     0.72     0.7857
A_1     C     0.2724     0.699     0.9352
A_1     C     0.3957     0.5475     0.6494
A_2     C     0.2898     0.0347     0.6266
A_0     C     0.5336     0.5934     0.7492
A_0     C     0.4965     0.6556     0.7489
A_3     C     0.8594     0.6589     0.9452
A_2     C     0.8842     0.0222     0.0346
A_0     C     0.6091     0.0668     0.8725
A_0     C     0.7246     0.0657     0.4008
A_3     C     0.8919     0.4733     0.7632
A_3     C     0.1751     0.5656     0.0473
A_1     C     0.3912     0.5587     0.2267
A_1     C     0.227     0.4023     0.9047
A_0     C     0.8644     0.5817     0.3772
A_0     C     0.9081     0.4441     0.4966
A_1     C     0.1545     0.7807     0.9571
A_1     C     0.443     0.9007     0.4528
A_1     C     0.3453     0.3808     0.4365
A_2     C     0.5193     0.4439     0.9797
A_2     C     0.305     0.6521     0.6802
A_3     C     0.1548     0.9082     0.7414
A_3     C     0.5284     0.5566     0.9577
A_2     C     0.0216     0.7016     0.3665
A_1     C     0.5136     0.7977     0.3087
A_3     C     0.0489     0.291     0.8105
A_3     C     0.006     0.3092     0.1313
A_1     C     0.4603     0.6236     0.4906
A_2     C     0.1267     0.9915     0.1015
A_3     C     0.0443     0.2856     0.2276
A_2     C     0.2843     0.2046     0.363
A_3     C     0.5016     0.4912     0.1137
A_2     C     0.6529     0.0449     0.1645
A_3     C     0.664     0.9003     0.1706
A_2     C     0.0011     0.4683     0.9542
A_2     C     0.8101     0.9798     0.0612
A_2     C     0.8993     0.9017     0.9977
A_3     C     0.9386     0.1172     0.7078
A_3     C     0.6013     0.7778     0.9065
A_2     C     0.6094     0.0357     0.3335
A_1     C     0.9423     0.4024     0.9732
A_2     C     0.0859     0.1097     0.7772
A_1     C     0.3788     0.3731     0.602
A_3     C     0.9658     0.7096     0.6716
A_0     C     0.2474     0.3861     0.931
A_1     C     0.7352     0.6757     0.2619
A_0     C     0.5839     0.8278     0.7112
A_3     C     0.1712     0.6117     0.794
A_2     C     0.1028     0.7031     0.4169
A_2     C     0.1932     0.2644     0.656
A_0     C     0.9648     0.5849     0.5414
A_2     C     0.2272     0.2491     0.0018
A_1     C     0.1305     0.5037     0.5154
A_3     C     0.8688     0.8042     0.8702
A_1     C     0.5895     0.5854     0.219
A_1     C     0.8045     0.1866     0.557
A_3     C     0.2554     0.3177     0.6284
A_1     C     0.3827     0.6891     0.1004
A_3     C     0.8668     0.2682     0.9422
A_0     C     0.684     0.5811     0.1404
A_3     C     0.6937     0.1033     0.41
A_1     C     0.4215     0.3233     0.0682
A_3     C     0.1887     0.8891     0.8022
A_0     C     0.3618     0.4722     0.3005
A_2     C     0.783     0.1012     0.3404
A_3     C     0.5046     0.9493     0.8597
A_2     C     0.7979     0.5032     0.6166
A_2     C     0.6777     0.5456     0.5221
A_3     C     0.5804     0.5964     0.1871
A_1     C     0.7356     0.5243     0.1794
A_0     C     0.0731     0.2281     0.9717
A_0     C     0.8492     0.4232     0.6394
A_2     C     0.7399     0.2001     0.0857
A_1     C     0.8844     0.6873     0.1146
A_0     C     0.3485     0.3653     0.6637
A_2     C     0.4418     0.5791     0.5507
A_1     C     0.3398     0.631     0.3128
A_1     C     0.973     0.8493     0.1482
A_1     C     0.1383     0.6985     0.9583
A_3     C     0.5466     0.4915     0.5525
A_3     C     0.7691     0.2466     0.5976
A_1     C     0.911     0.565     0.2868
A_3     C     0.7767     0.5661     0.027
A_3     C     0.0224     0.7068     0.0824
A_2     C     0.6038     0.4746     0.367
A_3     C     0.05     0.7816     0.6964
A_0     C     0.987     0.6428     0.2551
A_1     C     0.632     0.2069     0.0939
A_2     C     0.9249     0.9655     0.7506
A_3     C     0.1236     0.8265     0.6907
A_1     C     0.6442     0.1561     0.7669
A_2     C     0.2366     0.943     0.8783
A_1     C     0.0234     0.2265     0.5374
A_0     C     0.2757     0.7158     0.3238
A_1     C     0.6238     0.414     0.7315
A_2     C     0.5872     0.4163     0.6805
A_0     C     0.1667     0.9274     0.7504
A_2     C     0.8286     0.7628     0.7219
A_2     C     0.1627     0.6488     0.2368
A_0     C     0.9801     0.6347     0.5351
A_3     C     0.1248     0.8073     0.1545
A_0     C     0.8724     0.4315     0.3368
A_3     C     0.1363     0.2566     0.8333
A_3     C     0.9643     0.764     0.914
A_3     C     0.2946     0.4642     0.9809
A_1     C     0.8189     0.6282     0.2592
A_0     C     0.2041     0.269     0.0595
A_3     C     0.7564     0.6553     0.0464
A_3     C     0.5654     0.1473     0.6243
A_1     C     0.8468     0.3921     0.0552
A_1     C     0.9391     0.739     0.918
A_1     C     0.7041     0.8035     0.2236
A_1     C     0.1885     0.7111     0.9348
A_0     C     0.6621     0.995     0.1592
A_3     C     0.4809     0.7177     0.8282
A_1     C     0.8067     0.4452     0.5439
A_0     C     0.5211     0.385     0.947
A_0     C     0.29     0.5705     0.4112
A_0     C     0.4956     0.64     0.5742
A_0     C     0.8545     0.813     0.6757
A_0     C     0.4314     0.683     0.9318
A_2     C     0.1141     0.7032     0.8162
A_2     C     0.3071     0.4139     0.6055
A_0     C     0.7745     0.4693     0.9723
A_0     C     0.2284     0.4616     0.9657
A_0     C     0.6873     0.9359     0.6753
A_1     C     0.863     0.0569     0.3088
A_0     C     0.4352     0.3343     0.3171
A_3     C     0.8599     0.5113     0.4645
A_0     C     0.6075     0.6636     0.934
A_2     C     0.5756     0.1227     0.1009
A_3     C     0.2277     0.0971     0.2498
A_3     C     0.4433     0.1603     0.1424
A_0     C     0.4359     0.8745     0.3772
A_1     C     0.8031     0.7419     0.0904
A_3     C     0.8686     0.4879     0.6308
A_0     C     0.9423     0.6914     0.9403
A_1     C     0.8115     0.3339     0.9906
A_3     C     0.9211     0.7608     0.7205
A_3     C     0.803     0.2925     0.0954
A_3     C     0.0181     0.2654     0.14
A_2     C     0.3705     0.2613     0.8244
A_1     C     0.5918     0.5039     0.9139
A_2     C     0.1857     0.7936     0.6478
A_0     C     0.4566     0.6036     0.1418
A_0     C     0.0965     0.9736     0.6062
A_3     C     0.3156     0.1913     0.9144
A_3     C     0.7783     0.3408     0.5364
A_3     C     0.5407     0.2348     0.8809
A_1     C     0.3303     0.5412     0.5941
A_1     C     0.9508     0.8985     0.0111
A_2     C     0.1664     0.9774     0.0739
A_3     C     0.8404     0.1247     0.8839
A_2     C     0.9225     0.065     0.9388
A_0     C     0.1219     0.7658     0.6506
A_3     C     0.4961     0.319     0.6887
A_1     C     0.0608     0.3553     0.5762
A_3     C     0.31     0.6836     0.5878
A_1     C     0.8861     0.4802     0.2027
A_3     C     0.8256     0.4992     0.0813
A_1     C     0.2333     0.3937     0.2944
A_3     C     0.3795     0.3947     0.262
A_1     C     0.3063     0.9974     0.8604
A_3     C     0.7648     0.2599     0.1771
A_1     C     0.3135     0.5768     0.7547
A_3     C     0.9005     0.0194     0.4439
A_3     C     0.3773     0.599     0.9171
A_2     C     0.7199     0.4575     0.6264
A_1     C     0.4481     0.6719     0.8199
A_0     C     0.1152     0.472     0.2286
A_3     C     0.0388     0.7718     0.4662
A_1     C     0.5506     0.0511     0.9911
A_0     C     0.1432     0.1936     0.9405
A_1     C     0.3506     0.9902     0.3617
A_3     C     0.2318     0.8271     0.354
A_3     C     0.7887     0.2891     0.2372
A_1     C     0.5965     0.402     0.6479
A_0     C     0.3658     0.5972     0.9631
A_2     C     0.0478     0.9147     0.8398
A_2     C     0.1333     0.1392     0.8451
A_3     C     0.8504     0.291     0.4903
A_0     C     0.0815     0.4757     0.8693
A_2     C     0.6784     0.0348     0.9974
A_1     C     0.4239     0.8338     0.1916
A_3     C     0.7541     0.1122     0.5941
A_3     C     0.4969     0.8024     0.574
A_3     C     0.238     0.9468     0.705
A_3     C     0.5497     0.7428     0.253
A_3     C     0.2734     0.2292     0.5853
A_2     C     0.4149     0.1001     0.9473
A_2     C     0.3186     0.462     0.0286
A_1     C     0.7374     0.5997     0.6244
A_2     C     0.2513     0.5994     0.7714
A_1     C     0.3986     0.8626     0.6832
A_3     C     0.9682     0.7522     0.323
A_3     C     0.5118     0.0272     0.1731
A_2     C     0.1974     0.0542     0.3737
A_0     C     0.8799     0.6994     0.9843
A_3     C     0.2078     0.4295     0.2545
A_2     C     0.5582     0.2054     0.6808
A_1     C     0.2509     0.1549     0.3798
A_2     C     0.7636     0.1015     0.5633
A_0     C     0.8998     0.9713     0.0132
A_1     C     0.219     0.7638     0.6332
A_1     C     0.0337     0.2783     0.6523
A_1     C     0.3948     0.6409     0.8041
A_2     C     0.202     0.0347     0.7757
A_1     C     0.3047     0.3489     0.4724
A_1     C     0.1678     0.1453     0.6543
A_3     C     0.0242     0.704     0.1429
A_2     C     0.6966     0.0301     0.2667
A_3     C     0.9341     0.0049     0.864
A_1     C     0.8712     0.806     0.259
A_2     C     0.6117     0.9976     0.1588
A_0     C     0.5964     0.1552     0.5073
A_0     C     0.7247     0.3072     0.2784
A_2     C     0.2917     0.2439     0.2606
A_1     C     0.805     0.5397     0.6132
A_3     C     0.6126     0.8336     0.8234
A_0     C     0.8968     0.8368     0.2577
A_2     C     0.8417     0.8507     0.2456
A_2     C     0.9821     0.1087     0.0851
A_1     C     0.9531     0.6879     0.8672
A_1     C     0.6366     0.1062     0.5001
A_1     C     0.2114     0.1278     0.5573
A_3     C     0.9246     0.7733     0.9253
A_1     C     0.3838     0.629     0.8414
A_2     C     0.6894     0.4771     0.8917
A_0     C     0.229     0.8935     0.5695
A_2     C     0.0387     0.2712     0.8396
A_3     C     0.9532     0.7344     0.5607
A_1     C     0.1656     0.2923     0.1109
A_1     C     0.427     0.027     0.0225
A_2     C     0.7034     0.1483     0.8023
A_2     C     0.0174     0.5864     0.1447
A_3     C     0.2143     0.4344     0.6002
A_0     C     0.8257     0.1766     0.0995
A_1     C     0.5725     0.3858     0.9206
A_2     C     0.0746     0.0343     0.0762
A_3     C     0.8745     0.5295     0.3736
A_3     C     0.183     0.4297     0.5333
A_2     C     0.5807     0.9495     0.5553
A_1     C     0.2738     0.0298     0.3926
A_3     C     0.3283     0.6628     0.401
A_1     C     0.5723     0.8246     0.9012
A_2     C     0.6428     0.6496     0.7611
A_2     C     0.5912     0.4155     0.3037
A_2     C     0.572     0.4907     0.0248
A_3     C     0.9852     0.4863     0.9516
A_0     C     0.8205     0.5147     0.0911
A_2     C     0.8202     0.6575     0.9231
A_3     C     0.2705     0.0745     0.8101
A_1     C     0.3871     0.8606     0.0595
A_3     C     0.5017     0.9251     0.8312
A_3     C     0.4052     0.758     0.7238
A_0     C     0.9783     0.8729     0.3155
A_2     C     0.5835     0.0045     0.2895
A_0     C     0.5017     0.9155     0.2085
A_0     C     0.7759     0.3244     0.1422
A_0     C     0.4179     0.8869     0.4117
A_0     C     0.8003     0.1016     0.4626
A_3     C     0.6692     0.2772     0.4686
A_0     C     0.115     0.3587     0.4539
A_0     C     0.4134     0.4174     0.7036
A_3     C     0.7916     0.696     0.2176
A_1     C     0.4675     0.9843     0.2922
A_3     C     0.3887     0.5266     0.9424
A_1     C     0.6465     0.1328     0.5486
A_0     C     0.0518     0.7925     0.0683
A_2     C     0.5005     0.5542     0.963
A_2     C     0.7173     0.8164     0.9833
A_1     C     0.12     0.4133     0.5198
A_0     C     0.8608     0.5479     0.3104
A_0     C     0.6259     0.4868     0.2477
A_3     C     0.348     0.0274     0.9305
A_3     C     0.834     0.6055     0.8625
A_3     C     0.6416     0.0699     0.5738
A_0     C     0.394     0.6001     0.1139
A_3     C     0.4929     0.3939     0.7464
A_1     C     0.1782     0.2638     0.9814
A_2     C     0.0284     0.3458     0.2043
A_3     C     0.447     0.6261     0.8905
A_3     C     0.4001     0.5753     0.5447
A_0     C     0.93     0.5528     0.6339
A_1     C     0.211     0.9581     0.4039
A_0     C     0.5183     0.1495     0.88
A_0     C     0.3408     0.3856     0.6987
A_1     C     0.6642     0.3102     0.9363
A_3     C     0.33     0.7736     0.3992
A_3     C     0.5912     0.5087     0.4109
A_0     C     0.5819     0.8115     0.0552
A_3     C     0.1732     0.8229     0.5657
A_0     C     0.9285     0.8008     0.501
A_3     C     0.2327     0.4347     0.9414
A_0     C     0.9618     0.351     0.8186
A_3     C     0.4636     0.5082     0.1669
A_3     C     0.4426     0.4283     0.6283
A_2     C     0.9538     0.5376     0.1157
A_0     C     0.6447     0.9351     0.996
A_1     C     0.5085     0.5673     0.1377
A_1     C     0.8132     0.0912     0.5738
A_0     C     0.5418     0.785     0.6749
A_2     C     0.7562     0.3     0.1956
A_0     C     0.4745     0.3004     0.6174
A_2     C     0.1219     0.2846     0.2186
A_1     C     0.4523     0.3997     0.7016
A_3     C     0.1909     0.7928     0.1378
A_3     C     0.9869     0.7114     0.4276
A_1     C     0.3689     0.7544     0.5805
A_0     C     0.098     0.3923     0.0813
A_3     C     0.2857     0.5216     0.8686
A_2     C     0.367     0.9625     0.3797
A_3     C     0.2074     0.7167     0.1963
A_1     C     0.2457     0.4303     0.3785
A_0     C     0.4539     0.3869     0.4976
A_0     C     0.5242     0.6636     0.8574
A_3     C     0.952     0.9437     0.2479
A_3     C     0.2081     0.9313     0.1611
A_2     C     0.4723     0.2851     0.7418
A_1     C     0.1543     0.8447     0.9181
A_3     C     0.933     0.6072     0.6124
A_3     C     0.3717     0.8385     0.5729
A_0     C     0.6067     0.814     0.7861
A_0     C     0.1299     0.4336     0.2676
A_0     C     0.5531     0.3179     0.1285
A_1     C     0.0016     0.3845     0.9039
A_3     C     0.2321     0.884     0.321
A_3     C     0.0474     0.7091     0.118
A_1     C     0.9117     0.7011     0.7938
A_2     C     0.3251     0.259     0.7783
A_0     C     0.5514     0.3201     0.244
A_2     C     0.5339     0.7452     0.175
A_1     C     0.7944     0.697     0.4754
A_0     C     0.0893     0.5052     0.8605
A_0     C     0.2599     0.2239     0.8284
A_2     C     0.185     0.4073     0.8282
A_2     C     0.9121     0.2374     0.7877
A_1     C     0.8045     0.4076     0.3002
A_1     C     0.6033     0.3268     0.6007
A_1     C     0.5729     0.2505     0.9066
A_3     C     0.7369     0.1329     0.7922
A_3     C     0.5487     0.2215     0.1655
A_3     C     0.6795     0.2318     0.5297
A_3     C     0.9035     0.2428     0.8543
A_2     C     0.6337     0.193     0.1116
A_3     C     0.958     0.3265     0.4264
A_0     C     0.8227     0.169     0.691
A_0     C     0.6152     0.5841     0.1243
A_0     C     0.2258     0.7843     0.7503
A_3     C     0.4329     0.8083     0.065
A_0     C     0.0187     0.8329     0.3214
A_0     C     0.9328     0.1476     0.0357
A_2     C     0.9629     0.0127     0.5285
A_0     C     0.1227     0.0092     0.6028
A_2     C     0.1131     0.5057     0.4462
