MAT-34

loop_
_symmetry_equiv_pos_as_xyz
  x,y,z
_cell_length_a          28.3919
_cell_length_b          26.4248
_cell_length_c          28.6826
_cell_angle_alpha       90.0000
_cell_angle_beta        90.0000
_cell_angle_gamma       90.0000
loop_
_atom_site_label
_atom_site_type_symbol
_atom_site_fract_x
_atom_site_fract_y
_atom_site_fract_z
A_2     C     0.0408     0.5702     0.3033
A_2     C     0.5166     0.3575     0.8589
A_2     C     0.5938     0.9904     0.3321
A_1     C     0.697     0.4521     0.2314
A_1     C     0.0103     0.0197     0.4761
A_3     C     0.0465     0.3807     0.2625
A_2     C     0.3789     0.5082     0.7607
A_3     C     0.9393     0.2422     0.6242
A_2     C     0.1672     0.0689     0.0071
A_3     C     0.0858     0.5167     0.5252
A_2     C     0.0508     0.9694     0.8469
A_0     C     0.9086     0.6193     0.349
A_0     C     0.9504     0.3504     0.6252
A_3     C     0.0892     0.3064     0.472
A_0     C     0.5971     0.945     0.0073
A_2     C     0.4584     0.3782     0.9844
A_0     C     0.2032     0.5369     0.6302
A_0     C     0.6948     0.9161     0.1162
A_3     C     0.8093     0.8153     0.296
A_0     C     0.7228     0.7252     0.8615
A_1     C     0.5933     0.5082     0.2772
A_1     C     0.0943     0.6923     0.6445
A_3     C     0.698     0.7685     0.7772
A_3     C     0.2597     0.8741     0.9124
A_2     C     0.1715     0.7821     0.4826
A_0     C     0.0996     0.0987     0.2863
A_3     C     0.5513     0.3607     0.0166
A_3     C     0.5214     0.9122     0.8758
A_3     C     0.4542     0.9471     0.825
A_3     C     0.9954     0.4391     0.6742
A_0     C     0.5541     0.503     0.6196
A_3     C     0.0467     0.7821     0.215
A_3     C     0.0683     0.7419     0.6557
A_0     C     0.1704     0.9396     0.3771
A_2     C     0.24     0.6578     0.8815
A_2     C     0.9355     0.257     0.3794
A_0     C     0.3924     0.2215     0.3124
A_2     C     0.1693     0.1833     0.4633
A_2     C     0.4733     0.4712     0.3903
A_0     C     0.0173     0.7965     0.9242
A_1     C     0.5918     0.9901     0.2893
A_3     C     0.3974     0.167     0.8307
A_0     C     0.6654     0.393     0.0682
A_0     C     0.1728     0.4136     0.4344
A_3     C     0.0645     0.2456     0.2415
A_0     C     0.2844     0.8109     0.974
A_2     C     0.0754     0.6985     0.0354
A_0     C     0.1956     0.2664     0.6486
A_0     C     0.1361     0.703     0.4089
A_0     C     0.5956     0.5412     0.8689
A_0     C     0.912     0.1071     0.9339
A_1     C     0.5007     0.2209     0.5008
A_2     C     0.2733     0.7605     0.8721
A_2     C     0.7494     0.0571     0.0781
A_3     C     0.9124     0.9042     0.2877
A_1     C     0.1701     0.7742     0.6755
A_1     C     0.7122     0.6508     0.6795
A_0     C     0.4178     0.2894     0.1128
A_2     C     0.0956     0.6921     0.0038
A_0     C     0.9709     0.3378     0.1879
A_1     C     0.871     0.7634     0.7862
A_2     C     0.2047     0.1048     0.8266
A_3     C     0.3021     0.3706     0.7764
A_3     C     0.0296     0.9251     0.9538
A_3     C     0.1324     0.272     0.73
A_3     C     0.8402     0.1711     0.8952
A_1     C     0.4028     0.6345     0.5095
A_0     C     0.2092     0.357     0.8069
A_1     C     0.5839     0.4531     0.6262
A_2     C     0.9687     0.1448     0.7817
A_0     C     0.3353     0.9158     0.0959
A_3     C     0.724     0.9152     0.7357
A_0     C     0.2778     0.9207     0.9377
A_2     C     0.9463     0.9298     0.4196
A_1     C     0.8     0.4589     0.8739
A_1     C     0.4456     0.3169     0.5967
A_3     C     0.9021     0.554     0.8949
A_0     C     0.2286     0.9412     0.4302
A_2     C     0.5501     0.7766     0.24
A_3     C     0.2026     0.0264     0.1182
A_1     C     0.0094     0.1188     0.1355
A_1     C     0.1127     0.3788     0.1471
A_3     C     0.2521     0.7313     0.5081
A_3     C     0.3572     0.6786     0.9592
A_2     C     0.1803     0.1867     0.7653
A_3     C     0.9988     0.2402     0.7132
A_0     C     0.5954     0.0606     0.4436
A_0     C     0.7728     0.4228     0.9988
A_3     C     0.7586     0.0953     0.4729
A_1     C     0.6642     0.9926     0.2731
A_3     C     0.9597     0.9755     0.2114
A_0     C     0.0137     0.7407     0.1324
A_1     C     0.5085     0.5488     0.8748
A_2     C     0.7778     0.7444     0.9436
A_1     C     0.9698     0.3699     0.2535
A_1     C     0.0268     0.3571     0.9576
A_2     C     0.2582     0.5886     0.3986
A_0     C     0.2985     0.3905     0.6858
A_3     C     0.8065     0.3847     0.4502
A_0     C     0.1235     0.6896     0.1903
A_1     C     0.475     0.2894     0.542
A_3     C     0.4415     0.3211     0.8866
A_0     C     0.2923     0.0452     0.2163
A_0     C     0.3692     0.0921     0.0042
A_3     C     0.7245     0.1338     0.8353
A_0     C     0.5817     0.2126     0.5895
A_3     C     0.7148     0.6224     0.5841
A_2     C     0.6964     0.0651     0.6634
A_0     C     0.9593     0.405     0.9838
A_2     C     0.1866     0.9991     0.1492
A_2     C     0.8571     0.1215     0.1408
A_0     C     0.1384     0.9662     0.232
A_3     C     0.2592     0.4166     0.6256
A_1     C     0.6881     0.0465     0.4152
A_0     C     0.4229     0.536     0.8083
A_3     C     0.0513     0.0065     0.1646
A_3     C     0.385     0.5348     0.2348
A_1     C     0.7509     0.5313     0.9047
A_2     C     0.6959     0.4533     0.6262
A_0     C     0.8954     0.6239     0.3044
A_2     C     0.3     0.0635     0.0111
A_3     C     0.1827     0.0167     0.0757
A_0     C     0.3909     0.1125     0.8544
A_3     C     0.0355     0.0922     0.4088
A_0     C     0.8868     0.6724     0.3499
A_3     C     0.0373     0.7276     0.5102
A_0     C     0.2392     0.8584     0.9295
A_0     C     0.3251     0.452     0.2033
A_1     C     0.8256     0.8324     0.8809
A_3     C     0.6686     0.3148     0.6741
A_3     C     0.3509     0.8564     0.8422
A_2     C     0.1179     0.9294     0.8899
A_1     C     0.3865     0.5925     0.8128
A_3     C     0.3696     0.4552     0.3544
A_2     C     0.5212     0.3793     0.1897
A_3     C     0.1789     0.0224     0.1996
A_0     C     0.7694     0.7436     0.6666
A_0     C     0.5795     0.7211     0.3554
A_1     C     0.5274     0.7337     0.3139
A_1     C     0.6826     0.3085     0.6312
A_2     C     0.3973     0.1404     0.7589
A_1     C     0.9938     0.0928     0.75
A_1     C     0.0736     0.3625     0.3437
A_2     C     0.4947     0.2919     0.4824
A_2     C     0.6327     0.6298     0.968
A_0     C     0.3399     0.1056     0.8289
A_1     C     0.9963     0.7921     0.4255
A_1     C     0.4464     0.1502     0.7125
A_1     C     0.6625     0.7323     0.5177
A_2     C     0.8273     0.3844     0.1327
A_0     C     0.2721     0.475     0.164
A_2     C     0.0643     0.5921     0.97
A_1     C     0.0805     0.8588     0.8437
A_3     C     0.7439     0.2364     0.1635
A_3     C     0.9993     0.4257     0.863
A_1     C     0.7426     0.6071     0.6621
A_1     C     0.0959     0.3765     0.4743
A_3     C     0.4295     0.3042     0.2438
A_2     C     0.496     0.3187     0.0289
A_1     C     0.3456     0.4141     0.4046
A_0     C     0.4842     0.1044     0.476
A_2     C     0.5651     0.6657     0.4555
A_1     C     0.8003     0.714     0.3448
A_2     C     0.822     0.0451     0.7593
A_2     C     0.0732     0.3523     0.8471
A_3     C     0.0016     0.6347     0.8711
A_1     C     0.138     0.0132     0.4671
A_2     C     0.0041     0.6883     0.6053
A_2     C     0.1461     0.1678     0.7584
A_2     C     0.0101     0.5341     0.9655
A_2     C     0.3254     0.0016     0.7855
A_1     C     0.1634     0.1409     0.7755
A_3     C     0.7171     0.1217     0.3981
A_1     C     0.8649     0.4626     0.9922
A_1     C     0.3598     0.8645     0.7753
A_2     C     0.7112     0.9664     0.0691
A_1     C     0.1064     0.4259     0.6404
A_0     C     0.9986     0.2043     0.3245
A_0     C     0.6847     0.4727     0.5504
A_3     C     0.3842     0.6669     0.8894
A_3     C     0.9309     0.0579     0.3838
A_1     C     0.8345     0.6401     0.3415
A_1     C     0.272     0.4719     0.8036
A_0     C     0.2651     0.6354     0.981
A_1     C     0.4735     0.949     0.3859
A_1     C     0.2996     0.1231     0.4022
A_0     C     0.0602     0.4609     0.1519
A_0     C     0.8742     0.1794     0.899
A_0     C     0.2595     0.4199     0.3469
A_1     C     0.7036     0.7266     0.2793
A_3     C     0.8297     0.1599     0.2342
A_0     C     0.1455     0.5853     0.4507
A_1     C     0.1258     0.9188     0.0849
A_1     C     0.3612     0.7493     0.9164
A_1     C     0.652     0.3602     0.4252
A_1     C     0.9024     0.4031     0.9528
A_3     C     0.0047     0.2341     0.0106
A_3     C     0.3201     0.2922     0.6898
A_0     C     0.9333     0.6784     0.7739
A_1     C     0.4855     0.9148     0.4942
A_2     C     0.9789     0.251     0.9715
A_2     C     0.7755     0.0627     0.7957
A_1     C     0.9103     0.7351     0.7503
A_0     C     0.6496     0.7181     0.1423
A_1     C     0.854     0.3823     0.5927
A_1     C     0.9098     0.3307     0.7883
A_1     C     0.574     0.4303     0.3258
A_0     C     0.658     0.8147     0.6356
A_2     C     0.004     0.456     0.6307
A_0     C     0.3577     0.0395     0.724
A_3     C     0.0713     0.8618     0.7697
A_1     C     0.213     0.3185     0.5566
A_3     C     0.992     0.1741     0.1095
A_1     C     0.0659     0.4096     0.8599
A_1     C     0.8385     0.1904     0.5021
A_0     C     0.8508     0.3906     0.1955
A_0     C     0.0468     0.9644     0.2117
A_1     C     0.2474     0.5016     0.6488
A_2     C     0.8484     0.6362     0.6747
A_2     C     0.6389     0.9686     0.1277
A_3     C     0.5932     0.5478     0.9391
A_1     C     0.3403     0.8095     0.7091
A_0     C     0.101     0.2591     0.6987
A_3     C     0.9233     0.6612     0.7462
A_1     C     0.9683     0.2966     0.833
A_0     C     0.2423     0.3983     0.5002
A_3     C     0.374     0.1209     0.2141
A_3     C     0.1412     0.2967     0.7869
A_0     C     0.4817     0.5819     0.6092
A_3     C     0.636     0.8498     0.9323
A_3     C     0.6756     0.4597     0.5443
A_1     C     0.0343     0.3745     0.8404
A_3     C     0.3951     0.1466     0.8558
A_0     C     0.1193     0.3925     0.836
A_0     C     0.6449     0.1708     0.5035
A_3     C     0.1895     0.0162     0.7167
A_1     C     0.9447     0.0885     0.268
A_2     C     0.0056     0.4705     0.3675
A_2     C     0.4561     0.4675     0.661
A_0     C     0.6507     0.7274     0.5208
A_1     C     0.353     0.1768     0.0029
A_1     C     0.1333     0.0432     0.1262
A_2     C     0.2504     0.6525     0.2931
A_1     C     0.0711     0.0593     0.8507
A_3     C     0.6047     0.8598     0.6591
A_3     C     0.0765     0.6119     0.8896
A_3     C     0.1434     0.893     0.157
A_1     C     0.8618     0.388     0.9742
A_2     C     0.7078     0.8399     0.5903
A_3     C     0.3373     0.2615     0.7262
A_1     C     0.8752     0.3013     0.5565
A_0     C     0.3492     0.0704     0.6887
A_0     C     0.2919     0.519     0.0959
A_1     C     0.0211     0.9494     0.6148
A_3     C     0.4703     0.9924     0.9906
A_0     C     0.2996     0.6025     0.64
A_1     C     0.3435     0.5704     0.0576
A_0     C     0.0747     0.8567     0.3347
A_2     C     0.4045     0.9051     0.5037
A_3     C     0.2486     0.1947     0.0947
A_0     C     0.9379     0.1668     0.1468
A_3     C     0.3324     0.5043     0.0395
A_1     C     0.2363     0.8408     0.5045
A_2     C     0.3101     0.0559     0.3308
A_0     C     0.677     0.4998     0.508
A_1     C     0.1318     0.1948     0.9189
A_1     C     0.0358     0.4182     0.8624
A_0     C     0.2863     0.4977     0.7883
A_1     C     0.1864     0.1091     0.7099
A_3     C     0.0196     0.3484     0.8657
A_3     C     0.8894     0.677     0.9464
A_1     C     0.9626     0.3112     0.0773
A_3     C     0.8043     0.1786     0.4496
A_0     C     0.0641     0.033     0.6983
A_2     C     0.4297     0.631     0.9363
A_1     C     0.9456     0.197     0.401
A_2     C     0.8484     0.6405     0.5411
A_0     C     0.2522     0.5905     0.0936
A_1     C     0.9465     0.6599     0.8217
A_2     C     0.8433     0.2792     0.0171
A_3     C     0.79     0.4369     0.0828
A_3     C     0.8242     0.1254     0.8407
A_1     C     0.4621     0.2894     0.8338
A_2     C     0.0236     0.9448     0.8225
A_2     C     0.4719     0.3593     0.8308
A_1     C     0.479     0.7418     0.9911
A_0     C     0.7845     0.7788     0.8009
A_0     C     0.6457     0.5581     0.6566
A_2     C     0.7705     0.7923     0.8847
A_2     C     0.7271     0.7716     0.5865
A_3     C     0.5478     0.7825     0.7695
A_1     C     0.8494     0.3144     0.7698
A_1     C     0.5416     0.5819     0.4216
A_3     C     0.6773     0.479     0.995
A_2     C     0.2064     0.6745     0.0379
A_1     C     0.1349     0.4307     0.3584
A_2     C     0.9631     0.7128     0.3135
A_1     C     0.1091     0.4725     0.1399
A_3     C     0.8883     0.2982     0.0995
A_2     C     0.145     0.968     0.5637
A_3     C     0.9724     0.0387     0.89
A_3     C     0.5104     0.7114     0.299
A_1     C     0.2436     0.8136     0.0762
A_3     C     0.2347     0.3419     0.9163
A_0     C     0.8492     0.8798     0.4655
A_1     C     0.6111     0.4067     0.381
A_2     C     0.6703     0.5602     0.9097
A_2     C     0.3003     0.5252     0.24
A_3     C     0.9096     0.1591     0.5384
A_3     C     0.1091     0.9127     0.1784
A_2     C     0.9326     0.0455     0.4837
A_3     C     0.5991     0.0132     0.7702
A_1     C     0.5823     0.5931     0.4778
A_1     C     0.9122     0.1476     0.3915
A_1     C     0.1055     0.0586     0.6668
A_2     C     0.2634     0.839     0.9613
A_2     C     0.4169     0.622     0.8525
A_0     C     0.6377     0.3269     0.1298
A_0     C     0.7308     0.817     0.885
A_3     C     0.5511     0.3543     0.2908
A_3     C     0.3782     0.9031     0.6306
A_0     C     0.2187     0.9557     0.56
A_3     C     0.1662     0.1988     0.957
A_0     C     0.5514     0.7125     0.2257
A_2     C     0.819     0.1784     0.0161
A_1     C     0.2999     0.2111     0.0416
A_2     C     0.0904     0.458     0.9863
A_3     C     0.2634     0.035     0.3214
A_1     C     0.232     0.8848     0.329
A_0     C     0.9562     0.8664     0.8889
A_1     C     0.8444     0.2653     0.3074
A_0     C     0.1325     0.2804     0.6423
A_2     C     0.0491     0.2042     0.813
A_3     C     0.6194     0.564     0.1147
A_2     C     0.2355     0.4625     0.8502
A_2     C     0.4296     0.8857     0.3241
A_0     C     0.5122     0.6694     0.0419
A_1     C     0.9167     0.9468     0.5827
A_1     C     0.4858     0.4043     0.1897
A_1     C     0.6078     0.4912     0.2359
A_3     C     0.7731     0.4296     0.7926
A_2     C     0.369     0.1072     0.6995
A_3     C     0.8974     0.1005     0.193
A_3     C     0.1961     0.3337     0.5797
A_2     C     0.7146     0.6117     0.5309
A_0     C     0.5232     0.2057     0.6969
A_3     C     0.1607     0.401     0.4864
A_2     C     0.9942     0.5954     0.2721
A_3     C     0.1435     0.6706     0.5058
A_1     C     0.7618     0.2913     0.6906
A_1     C     0.1146     0.5941     0.239
A_2     C     0.9074     0.8359     0.1811
A_1     C     0.1835     0.8306     0.0392
A_0     C     0.993     0.042     0.1435
A_2     C     0.0199     0.0001     0.4118
A_0     C     0.4912     0.4722     0.8072
A_1     C     0.4177     0.6723     0.4752
A_2     C     0.7943     0.8884     0.3247
A_1     C     0.9299     0.7362     0.5201
A_0     C     0.5881     0.8626     0.2556
A_3     C     0.469     0.4738     0.784
A_2     C     0.5423     0.049     0.8187
A_2     C     0.3878     0.3437     0.8483
A_1     C     0.3965     0.1593     0.7041
A_1     C     0.3575     0.5341     0.062
A_0     C     0.2794     0.7418     0.3492
A_1     C     0.0979     0.3629     0.4272
A_0     C     0.3001     0.3002     0.7701
A_0     C     0.7495     0.5594     0.7971
A_0     C     0.4365     0.6045     0.5553
A_0     C     0.2077     0.4435     0.443
A_2     C     0.7936     0.5659     0.0158
A_0     C     0.9632     0.212     0.1371
A_0     C     0.2292     0.9792     0.4888
A_3     C     0.0866     0.0272     0.7009
A_1     C     0.4317     0.658     0.8617
A_3     C     0.1771     0.5291     0.2855
A_0     C     0.6715     0.7337     0.1689
A_1     C     0.3249     0.8119     0.6798
A_2     C     0.5583     0.1215     0.8631
A_2     C     0.1637     0.3683     0.2329
A_3     C     0.8058     0.5572     0.8477
A_3     C     0.9312     0.9541     0.1178
A_3     C     0.9896     0.2026     0.2343
A_1     C     0.6172     0.8246     0.0985
A_2     C     0.2578     0.0461     0.7797
A_2     C     0.1223     0.8544     0.9113
A_1     C     0.8061     0.5978     0.8505
A_2     C     0.0616     0.9796     0.9485
A_2     C     0.2514     0.8083     0.7286
A_3     C     0.979     0.4729     0.3355
A_1     C     0.7079     0.5453     0.7974
A_1     C     0.6894     0.3268     0.4601
A_1     C     0.0398     0.0035     0.0187
A_1     C     0.0892     0.5175     0.4621
A_3     C     0.3526     0.3253     0.5311
A_3     C     0.008     0.5632     0.1151
A_2     C     0.0711     0.526     0.949
A_2     C     0.7818     0.2194     0.399
A_0     C     0.8563     0.2672     0.2161
A_0     C     0.5995     0.6468     0.2906
A_3     C     0.425     0.1727     0.4958
A_0     C     0.2477     0.5629     0.3493
A_2     C     0.2552     0.6889     0.0844
A_0     C     0.7392     0.5042     0.2254
A_0     C     0.7138     0.2468     0.9512
A_2     C     0.2461     0.685     0.2064
A_3     C     0.5319     0.8502     0.6265
A_1     C     0.3729     0.5305     0.3426
A_0     C     0.962     0.525     0.2397
A_1     C     0.3147     0.0005     0.731
A_1     C     0.3414     0.215     0.3597
A_2     C     0.2969     0.9761     0.06
A_2     C     0.9142     0.2948     0.6571
A_0     C     0.8149     0.7138     0.3474
A_0     C     0.9602     0.9556     0.1486
A_2     C     0.4613     0.9391     0.6118
A_0     C     0.6423     0.6127     0.4836
A_1     C     0.1741     0.1697     0.9877
A_2     C     0.2417     0.0142     0.4752
A_0     C     0.3019     0.4251     0.5412
A_0     C     0.9539     0.7421     0.7213
A_0     C     0.4319     0.8482     0.0896
A_0     C     0.4548     0.2685     0.3368
A_2     C     0.0166     0.1239     0.7654
A_0     C     0.7769     0.0964     0.4129
A_3     C     0.4452     0.0579     0.616
A_3     C     0.3714     0.3663     0.7751
A_2     C     0.8131     0.9345     0.0428
A_2     C     0.9078     0.2164     0.858
A_2     C     0.8405     0.4751     0.5943
A_3     C     0.3131     0.8486     0.4649
A_2     C     0.5085     0.9392     0.3062
A_3     C     0.0396     0.439     0.4283
A_3     C     0.5069     0.9624     0.8685
A_3     C     0.779     0.1898     0.897
A_0     C     0.6521     0.4164     0.2819
A_1     C     0.5018     0.5007     0.1221
A_3     C     0.9595     0.0273     0.795
A_0     C     0.7823     0.3131     0.0085
A_2     C     0.4372     0.5173     0.1165
A_2     C     0.349     0.7476     0.2976
A_1     C     0.0739     0.0365     0.5648
A_1     C     0.1147     0.8314     0.5275
A_2     C     0.682     0.8518     0.3457
A_2     C     0.8621     0.0386     0.7305
A_0     C     0.8774     0.9102     0.7889
A_0     C     0.2061     0.4783     0.0608
A_0     C     0.1193     0.764     0.79
A_2     C     0.737     0.2525     0.2017
A_3     C     0.2312     0.1958     0.6041
A_3     C     0.6826     0.2628     0.4223
A_1     C     0.9073     0.1129     0.1355
A_3     C     0.3975     0.7117     0.6735
A_2     C     0.8271     0.804     0.7507
A_3     C     0.646     0.7466     0.323
A_2     C     0.2093     0.8898     0.6857
A_1     C     0.1134     0.1782     0.2263
A_3     C     0.3153     0.6946     0.3096
A_0     C     0.7718     0.6362     0.6642
A_0     C     0.7383     0.1447     0.1914
A_3     C     0.6534     0.7773     0.2754
A_1     C     0.8707     0.0005     0.7097
A_3     C     0.4801     0.7593     0.6888
A_0     C     0.7031     0.5621     0.5984
A_0     C     0.7602     0.1067     0.5063
A_0     C     0.7232     0.559     0.6558
A_2     C     0.3328     0.4811     0.8544
A_1     C     0.5873     0.0273     0.2867
A_0     C     0.3855     0.2716     0.2647
A_0     C     0.1577     0.0168     0.6202
A_1     C     0.3074     0.6749     0.9202
A_2     C     0.6779     0.1363     0.2397
A_2     C     0.0485     0.1179     0.8604
A_0     C     0.5657     0.4222     0.5641
A_1     C     0.1846     0.577     0.8589
A_2     C     0.828     0.6693     0.8643
A_0     C     0.0394     0.2237     0.0061
A_0     C     0.7119     0.5501     0.0625
A_2     C     0.6347     0.9003     0.4756
A_2     C     0.0793     0.1439     0.9428
A_0     C     0.1672     0.5997     0.631
A_1     C     0.1292     0.2184     0.7367
A_0     C     0.134     0.1026     0.0502
A_3     C     0.3173     0.5602     0.9339
A_2     C     0.0773     0.2835     0.0915
A_2     C     0.0759     0.5858     0.8676
A_2     C     0.8623     0.7334     0.021
A_3     C     0.9461     0.0674     0.3557
A_3     C     0.7664     0.8228     0.2382
A_1     C     0.6541     0.7523     0.1312
A_3     C     0.6052     0.0364     0.2086
A_0     C     0.0556     0.3671     0.6953
A_0     C     0.6177     0.6689     0.8916
A_0     C     0.7726     0.2885     0.3732
A_0     C     0.0822     0.5414     0.1982
A_0     C     0.5806     0.5269     0.1421
A_2     C     0.194     0.1599     0.3774
A_0     C     0.5185     0.4287     0.694
A_1     C     0.7509     0.334     0.2501
A_3     C     0.6864     0.1658     0.0568
A_1     C     0.8946     0.0297     0.7041
A_3     C     0.9958     0.3085     0.0297
A_3     C     0.4871     0.1161     0.9197
A_1     C     0.4323     0.6034     0.1628
A_2     C     0.2481     0.686     0.8482
A_0     C     0.2836     0.7142     0.1012
A_3     C     0.2261     0.5232     0.1922
A_2     C     0.9787     0.8413     0.0329
A_0     C     0.4166     0.3122     0.7186
A_1     C     0.0228     0.8337     0.4554
A_0     C     0.4384     0.1571     0.5082
A_0     C     0.3954     0.1335     0.7016
A_3     C     0.045     0.2307     0.7403
A_2     C     0.4782     0.6004     0.7651
A_1     C     0.4415     0.6293     0.0315
A_2     C     0.9772     0.5695     0.0656
A_2     C     0.1013     0.7154     0.859
A_3     C     0.5613     0.2874     0.0723
A_3     C     0.0111     0.2377     0.4533
A_3     C     0.5038     0.691     0.7703
A_2     C     0.3981     0.5646     0.9084
A_3     C     0.7823     0.1817     0.0034
A_2     C     0.5779     0.2551     0.5413
A_3     C     0.0107     0.51     0.8975
A_0     C     0.6228     0.2277     0.6444
A_2     C     0.9993     0.6427     0.216
A_3     C     0.9425     0.0768     0.1521
A_2     C     0.025     0.0574     0.5407
A_0     C     0.3523     0.2394     0.251
A_1     C     0.0898     0.1689     0.5617
A_0     C     0.2095     0.9554     0.6357
A_2     C     0.4414     0.9815     0.0931
A_1     C     0.9024     0.6679     0.4299
A_0     C     0.3146     0.2576     0.4693
A_3     C     0.8363     0.175     0.2832
A_1     C     0.6592     0.7925     0.1917
A_1     C     0.768     0.4164     0.0195
A_3     C     0.4956     0.9915     0.7535
A_3     C     0.5857     0.4508     0.4927
A_2     C     0.6033     0.2942     0.4689
A_0     C     0.546     0.2343     0.4871
A_3     C     0.3354     0.499     0.618
A_1     C     0.7805     0.7947     0.9308
A_0     C     0.4048     0.9408     0.6995
A_1     C     0.8508     0.3918     0.5349
A_2     C     0.737     0.0835     0.8272
A_2     C     0.2308     0.687     0.7152
A_3     C     0.5455     0.49     0.9693
A_0     C     0.9208     0.6248     0.1347
A_2     C     0.5304     0.4797     0.3385
A_1     C     0.6941     0.9687     0.2755
A_1     C     0.9641     0.7491     0.8283
A_3     C     0.1426     0.9446     0.5165
A_1     C     0.8014     0.3672     0.0428
A_0     C     0.3787     0.96     0.5313
A_2     C     0.7928     0.108     0.3313
A_2     C     0.9152     0.4042     0.9914
A_3     C     0.2769     0.4467     0.4525
A_2     C     0.0086     0.3862     0.0613
A_0     C     0.4671     0.4272     0.2718
A_2     C     0.2929     0.1641     0.2765
A_2     C     0.5332     0.7477     0.9934
A_2     C     0.3747     0.2896     0.9857
A_3     C     0.5449     0.721     0.513
A_1     C     0.1497     0.165     0.5153
A_2     C     0.9664     0.9676     0.201
A_0     C     0.4212     0.2624     0.109
A_3     C     0.1885     0.4647     0.1052
A_0     C     0.7469     0.9669     0.5056
A_1     C     0.7623     0.4161     0.8659
A_3     C     0.2223     0.655     0.9236
A_3     C     0.2794     0.1746     0.5321
A_2     C     0.5865     0.3412     0.4196
A_3     C     0.6842     0.5358     0.5532
A_0     C     0.7969     0.128     0.9235
A_2     C     0.5428     0.9002     0.3967
A_2     C     0.6754     0.0659     0.0468
A_3     C     0.8178     0.601     0.912
A_1     C     0.7915     0.7414     0.4679
A_3     C     0.9933     0.2395     0.0167
A_3     C     0.9631     0.3179     0.1732
A_2     C     0.0713     0.2494     0.9087
A_1     C     0.8411     0.8059     0.3105
A_2     C     0.2529     0.0056     0.0089
A_1     C     0.7556     0.9922     0.0907
A_2     C     0.2845     0.7105     0.424
A_3     C     0.851     0.4146     0.5788
A_1     C     0.2096     0.6296     0.2025
A_2     C     0.2367     0.9417     0.9001
A_2     C     0.1218     0.6739     0.9131
A_2     C     0.3244     0.2361     0.7147
A_1     C     0.0874     0.15     0.0532
A_1     C     0.3771     0.5209     0.7226
A_1     C     0.3505     0.8706     0.8138
A_1     C     0.9503     0.6792     0.4056
A_1     C     0.2848     0.5439     0.3238
A_3     C     0.6186     0.9906     0.0985
A_0     C     0.4813     0.3652     0.4253
A_3     C     0.6067     0.0506     0.7766
A_1     C     0.9386     0.6779     0.1925
A_1     C     0.3803     0.7122     0.3947
A_3     C     0.8589     0.0711     0.2245
A_3     C     0.5341     0.1753     0.3293
A_3     C     0.7849     0.4032     0.8006
A_3     C     0.4209     0.6013     0.0378
A_2     C     0.8881     0.7913     0.6534
A_0     C     0.9713     0.2255     0.4294
A_1     C     0.1205     0.4446     0.5583
A_0     C     0.05     0.0143     0.6721
A_3     C     0.0333     0.4778     0.1695
A_2     C     0.4902     0.7173     0.9329
A_3     C     0.539     0.6363     0.8371
A_1     C     0.3629     0.6432     0.1966
A_0     C     0.98     0.5737     0.9099
A_3     C     0.909     0.0317     0.896
A_1     C     0.4347     0.5307     0.402
A_3     C     0.9425     0.7665     0.7312
A_0     C     0.2298     0.8571     0.9207
A_1     C     0.5958     0.967     0.776
A_2     C     0.6848     0.0943     0.5684
A_0     C     0.0103     0.1913     0.3736
A_0     C     0.4148     0.8724     0.7095
A_0     C     0.4612     0.9188     0.465
A_1     C     0.1263     0.5688     0.9588
A_1     C     0.8371     0.118     0.5334
A_1     C     0.868     0.1118     0.541
A_1     C     0.299     0.5992     0.6737
A_1     C     0.9444     0.194     0.8774
A_3     C     0.3247     0.6864     0.4803
A_0     C     0.0912     0.7202     0.0899
A_1     C     0.3883     0.1328     0.6921
A_0     C     0.5033     0.8279     0.3159
A_2     C     0.6912     0.7348     0.1428
A_3     C     0.4254     0.0727     0.5028
A_1     C     0.1328     0.9949     0.9382
A_1     C     0.2989     0.1553     0.5746
A_2     C     0.63     0.2924     0.1563
A_3     C     0.5294     0.7166     0.0634
A_0     C     0.9928     0.1681     0.8556
A_3     C     0.9962     0.6676     0.3338
A_0     C     0.9529     0.9372     0.6171
A_3     C     0.5364     0.1808     0.7159
A_2     C     0.5683     0.3385     0.5827
A_1     C     0.5685     0.5913     0.821
A_1     C     0.3902     0.9182     0.8122
A_3     C     0.5146     0.5785     0.2417
A_1     C     0.2585     0.6083     0.5102
A_3     C     0.866     0.8293     0.504
A_2     C     0.657     0.1206     0.919
A_1     C     0.1879     0.9021     0.1662
A_3     C     0.5866     0.6144     0.0494
A_3     C     0.8333     0.8338     0.9628
A_0     C     0.4868     0.1971     0.5143
A_0     C     0.4356     0.7648     0.8565
A_0     C     0.3446     0.0168     0.6343
A_0     C     0.9334     0.3021     0.371
A_3     C     0.7461     0.8777     0.226
A_1     C     0.5984     0.4175     0.4188
A_3     C     0.6699     0.4977     0.834
A_1     C     0.6435     0.0238     0.4816
A_0     C     0.7714     0.0676     0.1674
A_0     C     0.6349     0.5759     0.8531
A_0     C     0.6304     0.4344     0.7026
A_3     C     0.8628     0.0695     0.211
A_2     C     0.5556     0.268     0.1269
A_1     C     0.102     0.9269     0.1707
A_3     C     0.0924     0.9096     0.5252
A_0     C     0.7989     0.4961     0.0843
A_1     C     0.4347     0.2603     0.1289
A_0     C     0.517     0.9513     0.858
A_2     C     0.5487     0.0812     0.1249
A_1     C     0.292     0.2579     0.9887
A_1     C     0.4439     0.1059     0.8454
A_0     C     0.4453     0.3631     0.6973
A_1     C     0.8023     0.4581     0.5666
A_3     C     0.0973     0.8195     0.073
A_1     C     0.3062     0.0981     0.5775
A_1     C     0.2248     0.7609     0.6506
A_0     C     0.9249     0.8197     0.5383
A_0     C     0.4881     0.7132     0.5634
A_0     C     0.1096     0.8623     0.2232
A_3     C     0.9854     0.4921     0.6079
A_0     C     0.8156     0.1237     0.2786
A_2     C     0.3938     0.4028     0.4568
A_2     C     0.0353     0.8265     0.681
A_0     C     0.6696     0.3782     0.7466
A_0     C     0.9732     0.5515     0.4712
A_3     C     0.8163     0.4141     0.9469
A_1     C     0.7506     0.3739     0.8229
A_3     C     0.5405     0.7216     0.0327
A_0     C     0.221     0.7101     0.3572
A_2     C     0.9961     0.7261     0.2855
A_0     C     0.3964     0.2568     0.4441
A_0     C     0.051     0.0571     0.0602
A_0     C     0.816     0.7815     0.9966
A_3     C     0.8019     0.4304     0.9488
A_0     C     0.4545     0.6125     0.3203
A_1     C     0.8598     0.3902     0.7568
A_3     C     0.5894     0.4138     0.7029
A_1     C     0.4968     0.529     0.1577
A_1     C     0.8773     0.197     0.6054
A_2     C     0.0668     0.8114     0.8153
A_1     C     0.0785     0.5524     0.91
A_1     C     0.0206     0.9209     0.5949
A_3     C     0.4441     0.0282     0.2849
A_3     C     0.1022     0.8557     0.1063
A_0     C     0.4428     0.807     0.4099
A_3     C     0.0564     0.5988     0.8956
A_3     C     0.6324     0.2566     0.6185
A_0     C     0.7163     0.4461     0.5468
A_3     C     0.6015     0.0995     0.1713
A_2     C     0.7341     0.3123     0.2461
A_1     C     0.7045     0.3518     0.782
A_2     C     0.4165     0.8677     0.6718
A_2     C     0.8928     0.5478     0.4045
A_3     C     0.329     0.2529     0.5355
A_3     C     0.7036     0.4293     0.2851
A_1     C     0.3129     0.4709     0.5782
A_1     C     0.9589     0.7805     0.2529
A_3     C     0.6172     0.4565     0.895
A_2     C     0.7875     0.6389     0.4242
A_0     C     0.3755     0.4477     0.3943
A_2     C     0.861     0.9607     0.7646
A_1     C     0.2076     0.2917     0.2949
A_2     C     0.0713     0.4393     0.5649
A_2     C     0.1799     0.4873     0.9822
A_1     C     0.2953     0.2963     0.0785
A_0     C     0.1417     0.6822     0.1042
A_1     C     0.5633     0.9982     0.2262
A_3     C     0.2175     0.4097     0.6638
A_0     C     0.945     0.4255     0.5305
A_3     C     0.9873     0.861     0.2164
A_1     C     0.3908     0.3546     0.5458
A_0     C     0.4569     0.8116     0.0419
A_2     C     0.0263     0.6397     0.0664
A_3     C     0.0499     0.7078     0.2104
A_3     C     0.298     0.4439     0.345
A_0     C     0.5757     0.5878     0.927
A_0     C     0.8197     0.6805     0.7578
A_3     C     0.0091     0.5394     0.9708
A_0     C     0.8601     0.0418     0.6596
A_0     C     0.2642     0.8968     0.493
A_3     C     0.8367     0.6868     0.4744
A_3     C     0.8731     0.7754     0.5968
A_1     C     0.7532     0.6906     0.239
A_1     C     0.8784     0.5736     0.5157
A_3     C     0.5218     0.604     0.1609
A_2     C     0.4849     0.0051     0.4222
A_2     C     0.9796     0.4538     0.2938
A_3     C     0.487     0.1156     0.7813
A_2     C     0.4116     0.7375     0.5743
A_0     C     0.8483     0.4515     0.5964
A_2     C     0.1478     0.8594     0.844
A_2     C     0.9533     0.1567     0.2666
A_0     C     0.2131     0.8645     0.9595
A_1     C     0.1528     0.9469     0.7939
A_0     C     0.4858     0.4596     0.1734
A_2     C     0.4648     0.4519     0.1937
A_2     C     0.5134     0.2629     0.518
A_2     C     0.9149     0.8591     0.9272
A_1     C     0.5017     0.3632     0.6159
A_2     C     0.4633     0.2793     0.9145
A_2     C     0.3273     0.0316     0.2586
A_1     C     0.0378     0.2196     0.9229
A_0     C     0.9241     0.3082     0.47
A_3     C     0.8536     0.7343     0.9489
A_0     C     0.2     0.6045     0.8399
A_2     C     0.9015     0.0158     0.3112
A_2     C     0.0137     0.7682     0.9089
A_0     C     0.3073     0.681     0.0985
A_1     C     0.8016     0.0172     0.2462
A_2     C     0.9078     0.5429     0.7774
A_3     C     0.391     0.3578     0.2199
A_3     C     0.3778     0.7376     0.7567
A_0     C     0.1192     0.9313     0.6605
A_2     C     0.8284     0.9424     0.6311
A_1     C     0.1429     0.0787     0.5293
A_0     C     0.2777     0.8906     0.4373
A_1     C     0.5856     0.45     0.5975
A_3     C     0.9783     0.6573     0.2394
A_3     C     0.4943     0.8554     0.8982
A_3     C     0.1662     0.8628     0.8832
A_3     C     0.1847     0.0271     0.3617
A_2     C     0.0265     0.4667     0.7739
A_0     C     0.004     0.0875     0.8959
A_3     C     0.6178     0.9883     0.8899
A_0     C     0.9332     0.3832     0.0085
A_0     C     0.021     0.798     0.5147
A_3     C     0.7956     0.3979     0.1594
A_1     C     0.5594     0.6523     0.8562
A_0     C     0.7849     0.7652     0.6149
A_2     C     0.2981     0.6535     0.5668
A_1     C     0.9684     0.3603     0.6651
A_3     C     0.932     0.8187     0.2955
A_2     C     0.0392     0.3402     0.7005
A_3     C     0.9945     0.1793     0.6022
A_0     C     0.6808     0.7094     0.6172
A_3     C     0.5408     0.0055     0.8352
A_3     C     0.153     0.5061     0.3991
A_1     C     0.7649     0.62     0.1578
A_1     C     0.3464     0.7521     0.8585
A_1     C     0.4829     0.7949     0.6696
A_0     C     0.6071     0.3481     0.68
A_0     C     0.8664     0.206     0.7021
A_0     C     0.525     0.4686     0.2441
A_2     C     0.8458     0.5926     0.3845
A_0     C     0.9656     0.6767     0.015
A_1     C     0.628     0.5141     0.6871
A_1     C     0.3471     0.0707     0.674
A_1     C     0.9559     0.8299     0.4787
A_1     C     0.2021     0.9399     0.4657
A_3     C     0.7279     0.0657     0.6677
A_0     C     0.5991     0.1252     0.2228
A_1     C     0.6173     0.2445     0.2593
A_0     C     0.4738     0.3488     0.3742
A_0     C     0.9957     0.5701     0.1457
A_1     C     0.2707     0.5838     0.1037
A_1     C     0.4187     0.3423     0.41
A_0     C     0.0835     0.3357     0.6548
A_2     C     0.6317     0.8033     0.4981
A_0     C     0.1947     0.3783     0.3131
A_1     C     0.7523     0.8097     0.7954
A_0     C     0.9437     0.1607     0.2228
A_2     C     0.3423     0.9966     0.2449
A_1     C     0.2706     0.6507     0.5148
A_3     C     0.2551     0.2716     0.7096
A_2     C     0.5792     0.3404     0.6625
A_0     C     0.1937     0.5612     0.3422
A_3     C     0.0317     0.4148     0.4761
A_1     C     0.2521     0.7147     0.1704
A_0     C     0.0179     0.2537     0.1037
A_0     C     0.5674     0.2999     0.7713
A_0     C     0.9325     0.0121     0.5939
A_2     C     0.5041     0.0328     0.6393
A_2     C     0.3325     0.6939     0.2059
A_1     C     0.0684     0.1613     0.805
A_3     C     0.6967     0.3327     0.4047
A_2     C     0.8243     0.2385     0.8703
A_1     C     0.111     0.3903     0.1532
A_2     C     0.7352     0.8979     0.7881
A_3     C     0.8883     0.8255     0.7183
A_0     C     0.1079     0.0089     0.3956
A_0     C     0.1728     0.4909     0.5545
A_2     C     0.4559     0.488     0.389
A_0     C     0.8966     0.8451     0.2776
A_0     C     0.7641     0.5361     0.3733
A_0     C     0.6982     0.0591     0.4518
A_3     C     0.7187     0.4818     0.907
A_0     C     0.5166     0.7065     0.8738
A_3     C     0.6552     0.1659     0.7414
A_2     C     0.3503     0.0619     0.0848
A_3     C     0.4856     0.3441     0.4134
A_1     C     0.6352     0.5868     0.7627
A_2     C     0.5056     0.5149     0.306
A_3     C     0.9309     0.4509     0.1556
A_3     C     0.203     0.7271     0.0961
A_3     C     0.6746     0.5764     0.4066
A_2     C     0.8427     0.8476     0.3827
A_3     C     0.5203     0.3946     0.3853
A_1     C     0.5367     0.5481     0.9219
A_3     C     0.548     0.8369     0.4591
A_1     C     0.3245     0.992     0.3797
A_2     C     0.1391     0.5857     0.6324
A_3     C     0.3053     0.0709     0.1097
A_3     C     0.0393     0.3628     0.0065
A_0     C     0.4971     0.7769     0.511
A_3     C     0.3445     0.6331     0.905
A_2     C     0.5055     0.0827     0.2303
A_0     C     0.3684     0.6876     0.4467
A_1     C     0.3507     0.9663     0.5346
A_2     C     0.1998     0.7997     0.8583
A_0     C     0.232     0.684     0.1424
A_1     C     0.1453     0.9582     0.1113
A_1     C     0.7762     0.8288     0.753
A_0     C     0.6852     0.1496     0.4549
A_2     C     0.2481     0.1284     0.5404
A_3     C     0.3829     0.5002     0.1947
A_2     C     0.7747     0.7984     0.042
A_2     C     0.5093     0.3337     0.1371
A_0     C     0.7912     0.2512     0.8472
A_1     C     0.7482     0.7661     0.8562
A_0     C     0.8196     0.1758     0.7994
A_1     C     0.5115     0.3501     0.5723
A_1     C     0.8526     0.2074     0.9468
A_2     C     0.5596     0.6511     0.0309
A_0     C     0.574     0.8671     0.1728
A_0     C     0.4197     0.3629     0.7193
A_0     C     0.0979     0.6519     0.4049
A_1     C     0.4295     0.7604     0.245
A_3     C     0.8977     0.7062     0.0253
A_1     C     0.9037     0.9491     0.3734
A_3     C     0.1252     0.7935     0.1233
A_3     C     0.8523     0.4867     0.9402
A_2     C     0.2643     0.4569     0.6638
A_3     C     0.8909     0.1249     0.8246
A_0     C     0.336     0.5011     0.5779
A_0     C     0.0693     0.4925     0.4728
A_2     C     0.4415     0.7338     0.5891
A_3     C     0.1265     0.5959     0.8826
A_2     C     0.6225     0.215     0.8009
A_0     C     0.4657     0.2529     0.3862
A_0     C     0.7449     0.8894     0.031
A_2     C     0.3171     0.2812     0.5027
A_1     C     0.5259     0.2018     0.7295
A_0     C     0.7705     0.7021     0.4094
A_2     C     0.6482     0.4017     0.1765
A_0     C     0.5117     0.009     0.7395
A_1     C     0.2021     0.1088     0.8802
A_2     C     0.6191     0.8536     0.5586
A_3     C     0.3191     0.6029     0.492
A_3     C     0.6949     0.3007     0.095
A_1     C     0.5885     0.2304     0.4793
A_2     C     0.1364     0.5117     0.809
A_1     C     0.3956     0.0198     0.498
A_0     C     0.0496     0.1239     0.4983
A_2     C     0.8113     0.9061     0.0617
A_0     C     0.0737     0.0231     0.7383
A_1     C     0.453     0.0207     0.4587
A_0     C     0.7781     0.0755     0.3849
A_3     C     0.7829     0.841     0.5983
A_0     C     0.6887     0.9899     0.2319
A_2     C     0.8165     0.9616     0.9735
A_1     C     0.6556     0.2006     0.3301
A_0     C     0.4395     0.6746     0.7363
A_2     C     0.8064     0.2781     0.1027
A_1     C     0.7615     0.5067     0.5369
A_2     C     0.2953     0.7369     0.1073
A_3     C     0.3746     0.8619     0.5983
A_2     C     0.4655     0.752     0.7014
A_2     C     0.4522     0.3983     0.9177
A_1     C     0.2615     0.1867     0.9702
A_2     C     0.6352     0.3704     0.5522
A_0     C     0.6093     0.3529     0.6615
A_0     C     0.6089     0.3429     0.5117
A_0     C     0.0005     0.3888     0.9829
A_2     C     0.7151     0.5765     0.8048
A_1     C     0.4679     0.1552     0.442
A_2     C     0.8173     0.3858     0.279
A_3     C     0.1421     0.7159     0.7827
A_3     C     0.3685     0.2204     0.2301
A_1     C     0.982     0.7314     0.7641
A_2     C     0.6713     0.8186     0.893
A_2     C     0.2856     0.8337     0.8476
A_0     C     0.3217     0.1008     0.8844
A_0     C     0.8683     0.1065     0.4284
A_2     C     0.201     0.9617     0.5074
A_0     C     0.4422     0.194     0.2747
A_2     C     0.0837     0.5749     0.3777
A_2     C     0.2816     0.3129     0.8533
A_0     C     0.1687     0.4331     0.7203
A_2     C     0.3008     0.3569     0.7664
A_0     C     0.9419     0.5624     0.1742
A_3     C     0.6788     0.6009     0.1028
A_3     C     0.1646     0.0949     0.0645
A_0     C     0.8748     0.8804     0.26
A_2     C     0.6206     0.9364     0.1674
A_1     C     0.5842     0.2366     0.5232
A_3     C     0.8576     0.9185     0.5409
A_3     C     0.3887     0.9055     0.2704
A_0     C     0.6384     0.7761     0.9824
A_0     C     0.953     0.4184     0.5841
A_0     C     0.3102     0.9392     0.8239
A_3     C     0.5296     0.5757     0.6212
A_1     C     0.5529     0.3839     0.6041
A_3     C     0.1584     0.8003     0.0016
A_3     C     0.4248     0.2959     0.7995
A_1     C     0.1552     0.6339     0.2291
A_0     C     0.7233     0.1783     0.6045
A_0     C     0.2677     0.1963     0.9661
A_1     C     0.5698     0.8171     0.9545
A_3     C     0.056     0.824     0.1093
A_1     C     0.5184     0.5919     0.9424
A_3     C     0.3154     0.302     0.3593
A_2     C     0.2233     0.7281     0.9186
A_1     C     0.9564     0.9517     0.5567
A_2     C     0.8948     0.3338     0.5076
A_2     C     0.3411     0.5731     0.6373
A_3     C     0.1872     0.0586     0.3081
A_1     C     0.0435     0.627     0.1096
A_0     C     0.3006     0.9482     0.6813
A_3     C     0.0829     0.4653     0.2544
A_0     C     0.8171     0.2355     0.5656
A_1     C     0.0446     0.7201     0.6478
A_0     C     0.0224     0.8118     0.7471
A_2     C     0.6012     0.0462     0.1531
A_1     C     0.6632     0.2815     0.5728
A_1     C     0.5047     0.2446     0.4047
A_1     C     0.1449     0.1568     0.624
A_3     C     0.5508     0.3541     0.5396
A_1     C     0.2046     0.6546     0.1778
A_0     C     0.9425     0.9755     0.4806
A_2     C     0.061     0.7708     0.1288
A_3     C     0.4277     0.2845     0.0869
A_3     C     0.0183     0.4069     0.4218
A_0     C     0.5305     0.286     0.0476
A_0     C     0.5305     0.9302     0.3825
A_3     C     0.2017     0.0306     0.7348
A_3     C     0.771     0.6465     0.0838
A_0     C     0.1822     0.5494     0.3761
A_0     C     0.3717     0.1235     0.7762
A_2     C     0.8202     0.964     0.1567
A_2     C     0.6997     0.0256     0.2299
A_3     C     0.2632     0.2631     0.2991
A_3     C     0.7879     0.3121     0.9961
A_0     C     0.5688     0.211     0.9645
A_0     C     0.3457     0.7073     0.6257
A_2     C     0.2833     0.4211     0.0708
A_2     C     0.0787     0.4695     0.6949
A_3     C     0.6712     0.1369     0.9735
A_1     C     0.4844     0.2574     0.4866
A_3     C     0.7958     0.6564     0.2229
A_2     C     0.3366     0.4905     0.4214
A_1     C     0.5049     0.607     0.0372
A_3     C     0.9429     0.1144     0.0164
A_3     C     0.8532     0.9392     0.9681
A_1     C     0.5111     0.1708     0.7087
A_0     C     0.9368     0.6881     0.1769
A_0     C     0.0611     0.6586     0.606
A_0     C     0.8616     0.5344     0.2998
A_0     C     0.7868     0.6143     0.61
A_1     C     0.5852     0.4645     0.4903
A_1     C     0.6664     0.0284     0.4607
A_0     C     0.103     0.761     0.2563
A_3     C     0.7475     0.5161     0.3394
A_1     C     0.1416     0.0907     0.2771
A_3     C     0.6177     0.6495     0.7798
A_3     C     0.4809     0.3381     0.9019
A_0     C     0.0462     0.6415     0.4208
A_2     C     0.3851     0.9368     0.6022
A_0     C     0.8018     0.0816     0.4299
A_2     C     0.6867     0.8469     0.7231
A_3     C     0.5068     0.4023     0.9074
A_0     C     0.0257     0.8651     0.3265
A_2     C     0.0697     0.0169     0.5428
A_3     C     0.7702     0.2619     0.5407
A_3     C     0.9915     0.6101     0.0003
A_1     C     0.6232     0.5858     0.2492
A_3     C     0.8669     0.9991     0.6366
A_2     C     0.5965     0.2519     0.0401
A_1     C     0.9228     0.1386     0.6314
A_0     C     0.1089     0.7632     0.9312
A_0     C     0.1103     0.0424     0.1744
A_0     C     0.8983     0.7924     0.2403
A_2     C     0.4818     0.3134     0.0703
A_0     C     0.6588     0.3071     0.8236
A_2     C     0.3846     0.1872     0.8006
A_3     C     0.5217     0.3398     0.8647
A_0     C     0.6469     0.2174     0.2054
A_0     C     0.5733     0.9761     0.2631
A_1     C     0.2054     0.6737     0.6467
A_2     C     0.6537     0.5396     0.8333
A_0     C     0.4242     0.4606     0.9139
A_0     C     0.2561     0.8515     0.7985
A_2     C     0.5457     0.7057     0.354
A_3     C     0.2231     0.3414     0.6617
A_0     C     0.8671     0.7125     0.2723
A_1     C     0.865     0.6841     0.0174
A_2     C     0.5007     0.2034     0.5179
A_2     C     0.0624     0.7127     0.4587
A_3     C     0.9625     0.4833     0.153
A_1     C     0.7014     0.3281     0.2862
A_0     C     0.5078     0.4836     0.7105
A_0     C     0.6237     0.661     0.6098
A_0     C     0.4828     0.6508     0.8724
A_2     C     0.0647     0.9644     0.5776
A_3     C     0.3459     0.6902     0.4267
A_2     C     0.4121     0.8514     0.1073
A_2     C     0.8503     0.0501     0.8215
A_2     C     0.4808     0.7712     0.2713
A_3     C     0.9557     0.3698     0.3163
A_2     C     0.9587     0.8647     0.7885
A_1     C     0.0873     0.8762     0.2835
A_1     C     0.1375     0.2696     0.1743
A_0     C     0.2544     0.8483     0.6321
A_1     C     0.9508     0.0558     0.9949
A_1     C     0.1067     0.0374     0.0853
A_0     C     0.8678     0.2166     0.2512
A_2     C     0.0146     0.5424     0.9692
A_3     C     0.5248     0.8189     0.5278
A_2     C     0.961     0.9692     0.667
A_1     C     0.228     0.2352     0.3275
A_1     C     0.5063     0.3099     0.6403
A_0     C     0.4202     0.1314     0.4714
A_0     C     0.1921     0.0974     0.1826
A_2     C     0.9081     0.4673     0.9674
A_3     C     0.96     0.0374     0.2511
A_2     C     0.5257     0.0166     0.9785
A_1     C     0.1126     0.0001     0.3088
A_0     C     0.3133     0.5038     0.1891
A_0     C     0.1747     0.4384     0.5864
A_1     C     0.431     0.1227     0.6827
A_2     C     0.544     0.8859     0.4325
A_0     C     0.9648     0.1449     0.6646
A_0     C     0.9246     0.622     0.3337
A_1     C     0.9544     0.4051     0.3154
A_3     C     0.0769     0.5414     0.638
A_2     C     0.7367     0.5341     0.5977
A_0     C     0.8703     0.3956     0.0514
A_2     C     0.4795     0.2937     0.4171
A_0     C     0.1909     0.9359     0.674
A_2     C     0.7343     0.3688     0.8674
A_2     C     0.9112     0.3642     0.0658
A_3     C     0.5375     0.118     0.5242
A_3     C     0.1153     0.6314     0.2729
A_1     C     0.8501     0.4684     0.6896
A_3     C     0.3818     0.8979     0.1911
A_0     C     0.9279     0.4477     0.3596
A_0     C     0.029     0.8033     0.6664
A_1     C     0.6214     0.8868     0.9832
A_3     C     0.3696     0.8913     0.6185
A_3     C     0.0705     0.1968     0.1699
A_0     C     0.6245     0.1485     0.8865
A_1     C     0.4055     0.8079     0.1965
A_1     C     0.9988     0.301     0.7264
A_2     C     0.1992     0.9812     0.9448
A_1     C     0.2258     0.0292     0.4963
A_3     C     0.2047     0.5135     0.4626
A_3     C     0.8045     0.5355     0.992
A_0     C     0.6388     0.1125     0.5828
A_0     C     0.7224     0.4291     0.9208
A_0     C     0.7224     0.017     0.0945
A_0     C     0.6438     0.169     0.6821
A_0     C     0.5412     0.7069     0.4805
A_1     C     0.1405     0.3643     0.8525
A_2     C     0.3098     0.1388     0.9847
A_2     C     0.2184     0.7514     0.8628
A_3     C     0.1298     0.871     0.145
A_0     C     0.5641     0.0743     0.057
A_0     C     0.709     0.0044     0.1196
A_2     C     0.0654     0.2     0.1564
A_2     C     0.0359     0.2379     0.1365
A_2     C     0.6938     0.9194     0.1877
A_1     C     0.8294     0.8103     0.0822
A_3     C     0.4195     0.7557     0.9612
A_1     C     0.002     0.7273     0.226
A_2     C     0.4611     0.4571     0.0784
A_2     C     0.7315     0.9025     0.5876
A_2     C     0.6843     0.8359     0.6312
A_3     C     0.3835     0.917     0.7714
A_2     C     0.2733     0.6553     0.5464
A_3     C     0.366     0.3952     0.4831
A_0     C     0.2406     0.2583     0.8998
A_2     C     0.0838     0.7444     0.632
A_3     C     0.3375     0.4172     0.7374
A_0     C     0.9181     0.9044     0.3553
A_0     C     0.811     0.9747     0.328
A_3     C     0.6479     0.1737     0.4652
A_2     C     0.0998     0.2012     0.1286
A_3     C     0.0281     0.0545     0.8586
A_3     C     0.6445     0.54     0.7417
A_3     C     0.5557     0.1593     0.6417
A_0     C     0.9881     0.2391     0.3005
A_2     C     0.0949     0.4135     0.5788
A_2     C     0.6573     0.4725     0.9311
A_0     C     0.6003     0.7553     0.7454
A_1     C     0.726     0.3643     0.4884
A_0     C     0.1363     0.8073     0.5934
A_1     C     0.9167     0.9366     0.251
A_0     C     0.0919     0.4617     0.0706
A_1     C     0.9586     0.788     0.0027
A_0     C     0.4268     0.9426     0.1607
A_3     C     0.1257     0.3584     0.3764
A_3     C     0.7055     0.939     0.5469
A_2     C     0.7971     0.1387     0.8186
A_0     C     0.9321     0.1354     0.662
A_0     C     0.586     0.425     0.425
A_0     C     0.2554     0.9215     0.2082
A_1     C     0.9439     0.3624     0.3258
A_3     C     0.7861     0.3285     0.556
A_0     C     0.0504     0.101     0.9687
A_0     C     0.7942     0.9651     0.4669
A_1     C     0.9195     0.0209     0.6027
A_0     C     0.1785     0.5696     0.7211
A_0     C     0.0822     0.0702     0.9898
A_1     C     0.3272     0.2225     0.0096
A_0     C     0.208     0.9073     0.5754
A_1     C     0.2383     0.6524     0.8821
A_3     C     0.4465     0.1191     0.4823
A_0     C     0.6472     0.5039     0.2122
A_1     C     0.6543     0.1873     0.705
A_2     C     0.8854     0.8743     0.2285
A_1     C     0.349     0.6035     0.6175
A_3     C     0.7392     0.6748     0.5524
A_2     C     0.4047     0.1074     0.8854
A_0     C     0.2122     0.9372     0.4563
A_0     C     0.5685     0.9005     0.524
A_3     C     0.6694     0.165     0.1011
A_2     C     0.7523     0.5593     0.5478
A_3     C     0.043     0.5414     0.8021
A_0     C     0.3047     0.1631     0.1563
A_0     C     0.5936     0.7179     0.2482
A_3     C     0.9948     0.4426     0.8548
A_3     C     0.1375     0.4442     0.0977
A_2     C     0.7643     0.2149     0.8864
A_3     C     0.5821     0.0548     0.6003
A_0     C     0.4263     0.13     0.3485
A_2     C     0.3448     0.4473     0.9994
A_3     C     0.2351     0.1744     0.819
A_1     C     0.906     0.0284     0.9898
A_0     C     0.7462     0.6676     0.6658
A_3     C     0.1028     0.9503     0.0127
A_3     C     0.2174     0.094     0.0465
A_0     C     0.5851     0.7687     0.3607
A_2     C     0.6628     0.3852     0.181
A_0     C     0.3947     0.8802     0.623
A_2     C     0.9804     0.2059     0.1441
A_2     C     0.9768     0.884     0.1372
A_0     C     0.2196     0.9784     0.8284
A_0     C     0.791     0.5447     0.2058
A_3     C     0.7674     0.3     0.3952
A_1     C     0.3621     0.6073     0.4407
A_1     C     0.3455     0.4044     0.0238
A_2     C     0.2497     0.8237     0.1976
A_1     C     0.091     0.509     0.2629
A_2     C     0.4945     0.2807     0.0668
A_1     C     0.9027     0.4382     0.0209
A_3     C     0.1227     0.8317     0.5708
A_2     C     0.8558     0.002     0.8769
A_0     C     0.3389     0.6564     0.3273
A_2     C     0.1789     0.2111     0.8107
A_3     C     0.8219     0.7294     0.4598
A_3     C     0.7248     0.3935     0.0596
A_3     C     0.8688     0.3835     0.9042
A_0     C     0.5163     0.9052     0.4697
A_1     C     0.5588     0.2516     0.9952
A_2     C     0.7119     0.5811     0.6381
A_0     C     0.891     0.4465     0.3465
A_0     C     0.3749     0.4919     0.5515
A_1     C     0.2548     0.6172     0.4886
A_3     C     0.372     0.2907     0.5086
A_1     C     0.4981     0.5851     0.0668
A_0     C     0.6542     0.202     0.6119
A_3     C     0.7556     0.1272     0.0181
A_3     C     0.7169     0.8404     0.6866
A_3     C     0.1883     0.4724     0.8523
A_2     C     0.7335     0.9355     0.8218
A_3     C     0.2463     0.6328     0.1058
A_1     C     0.3012     0.3779     0.7627
A_1     C     0.7521     0.7728     0.7486
A_1     C     0.7871     0.3335     0.0196
A_3     C     0.0385     0.7696     0.7191
A_3     C     0.8276     0.4656     0.4513
A_2     C     0.5233     0.6015     0.4412
A_1     C     0.9836     0.4924     0.1354
A_1     C     0.8073     0.5533     0.989
A_1     C     0.6541     0.8114     0.7906
A_1     C     0.644     0.009     0.4984
A_0     C     0.7692     0.6358     0.4587
A_1     C     0.4826     0.1768     0.7201
A_2     C     0.8658     0.9606     0.7688
A_2     C     0.1398     0.3461     0.8127
A_1     C     0.171     0.6064     0.92
A_2     C     0.7411     0.9956     0.1533
A_0     C     0.2881     0.2201     0.6025
A_3     C     0.774     0.2438     0.8309
A_3     C     0.2819     0.8569     0.4257
A_0     C     0.86     0.0589     0.9904
A_1     C     0.0331     0.5612     0.6666
A_3     C     0.9032     0.4292     0.2023
A_1     C     0.1046     0.9008     0.0094
A_2     C     0.3875     0.8265     0.3056
A_2     C     0.5887     0.0929     0.6637
A_0     C     0.0527     0.9528     0.1109
A_3     C     0.1352     0.416     0.6847
A_3     C     0.9152     0.3771     0.7791
A_1     C     0.2509     0.5844     0.2612
A_2     C     0.0125     0.4291     0.8675
A_2     C     0.6167     0.8562     0.8505
A_0     C     0.4456     0.2656     0.1338
A_1     C     0.362     0.4511     0.1885
A_2     C     0.9209     0.1159     0.3932
A_1     C     0.7625     0.2027     0.797
A_2     C     0.0112     0.6176     0.8394
A_0     C     0.6805     0.7409     0.7193
A_0     C     0.6477     0.6341     0.6932
A_1     C     0.4864     0.4533     0.3904
A_3     C     0.3479     0.7303     0.1681
A_3     C     0.9251     0.4783     0.2487
A_2     C     0.82     0.3125     0.5146
A_2     C     0.6219     0.678     0.3358
A_3     C     0.7931     0.2436     0.744
A_0     C     0.7026     0.0979     0.3584
A_0     C     0.0437     0.4015     0.2898
A_2     C     0.6295     0.6109     0.7303
A_2     C     0.9956     0.625     0.3308
A_0     C     0.5791     0.8207     0.8815
A_3     C     0.8179     0.1549     0.0229
A_1     C     0.452     0.3525     0.5316
A_0     C     0.4475     0.5339     0.0041
A_1     C     0.9344     0.128     0.42
A_3     C     0.7968     0.6226     0.712
A_1     C     0.4794     0.5787     0.6397
A_3     C     0.5913     0.2459     0.8496
A_2     C     0.095     0.4088     0.8514
A_3     C     0.0878     0.6178     0.7306
A_0     C     0.8719     0.9672     0.6304
A_3     C     0.971     0.655     0.0724
A_2     C     0.0861     0.4289     0.4339
A_2     C     0.6596     0.2381     0.1069
A_1     C     0.599     0.7     0.4625
A_3     C     0.3498     0.2987     0.372
A_0     C     0.2368     0.9021     0.5905
A_0     C     0.7341     0.258     0.2856
A_0     C     0.7573     0.2008     0.7215
A_1     C     0.2639     0.6869     0.1906
A_2     C     0.3394     0.2133     0.2874
A_3     C     0.9212     0.7579     0.7022
A_2     C     0.2334     0.9522     0.9553
A_1     C     0.1944     0.636     0.5301
A_0     C     0.347     0.0262     0.4231
A_2     C     0.25     0.0942     0.9342
A_2     C     0.1922     0.1571     0.3645
A_0     C     0.3288     0.7654     0.1051
A_3     C     0.5106     0.0278     0.5913
A_2     C     0.9116     0.0854     0.4732
A_2     C     0.0841     0.0218     0.7851
A_2     C     0.9196     0.1293     0.0306
A_3     C     0.1039     0.1204     0.5745
A_2     C     0.4982     0.1499     0.2622
A_0     C     0.7267     0.0244     0.6906
A_0     C     0.3432     0.0801     0.5316
A_3     C     0.4906     0.0433     0.7918
A_2     C     0.0063     0.22     0.2272
A_1     C     0.4715     0.8964     0.5119
A_0     C     0.5332     0.5136     0.4746
A_0     C     0.0148     0.9517     0.0465
A_3     C     0.0619     0.8661     0.8161
A_2     C     0.6395     0.6243     0.9348
A_0     C     0.5859     0.923     0.823
A_0     C     0.0199     0.8663     0.0589
A_2     C     0.7623     0.0919     0.8056
A_3     C     0.2785     0.1704     0.4879
A_0     C     0.3169     0.3864     0.6061
A_1     C     0.298     0.7218     0.3956
A_2     C     0.1055     0.1777     0.5243
A_2     C     0.1448     0.9931     0.5245
A_3     C     0.4714     0.7589     0.1967
A_0     C     0.9967     0.5481     0.2406
A_1     C     0.9116     0.5103     0.7377
A_1     C     0.0322     0.9277     0.7427
A_2     C     0.2919     0.4934     0.0202
A_0     C     0.9933     0.0551     0.106
A_1     C     0.2058     0.5372     0.245
A_0     C     0.62     0.3873     0.7466
A_2     C     0.5413     0.4045     0.0652
A_2     C     0.8899     0.8343     0.2228
A_2     C     0.2751     0.648     0.2341
A_2     C     0.9099     0.8491     0.2937
A_1     C     0.7873     0.0557     0.6794
A_1     C     0.0774     0.0305     0.4656
A_0     C     0.8854     0.0139     0.6238
A_0     C     0.484     0.837     0.4923
A_1     C     0.1667     0.045     0.9184
A_1     C     0.3554     0.2189     0.7813
A_1     C     0.5745     0.6166     0.7184
A_2     C     0.8289     0.1519     0.5771
A_1     C     0.6771     0.7245     0.7627
A_1     C     0.4689     0.3717     0.8593
A_0     C     0.0937     0.1448     0.294
A_3     C     0.712     0.9324     0.4326
A_1     C     0.5288     0.6744     0.4546
A_1     C     0.3484     0.9451     0.7874
A_3     C     0.4847     0.1462     0.4015
A_2     C     0.0463     0.4486     0.9327
A_1     C     0.2257     0.0142     0.8138
A_3     C     0.8497     0.615     0.4233
A_1     C     0.8403     0.2344     0.5583
A_2     C     0.0951     0.9125     0.8321
A_2     C     0.1904     0.9363     0.0377
A_2     C     0.4844     0.7014     0.5349
A_0     C     0.6915     0.8881     0.0896
A_3     C     0.3204     0.1319     0.5523
A_2     C     0.8803     0.7375     0.7067
A_3     C     0.2705     0.7926     0.0012
A_2     C     0.9112     0.0692     0.5649
A_2     C     0.2612     0.7938     0.4432
A_3     C     0.3554     0.5525     0.5565
A_2     C     0.7839     0.1047     0.5972
A_2     C     0.2248     0.8522     0.8819
A_0     C     0.618     0.8104     0.2366
A_3     C     0.6146     0.2292     0.2302
A_3     C     0.3477     0.1862     0.3006
A_3     C     0.3053     0.1678     0.4463
A_3     C     0.9695     0.7676     0.2811
A_2     C     0.7004     0.115     0.0184
A_2     C     0.1449     0.6572     0.7994
A_1     C     0.116     0.4468     0.29
A_3     C     0.5479     0.2894     0.3812
A_3     C     0.8678     0.1281     0.1646
A_3     C     0.3973     0.2734     0.5037
A_2     C     0.18     0.4077     0.5972
A_1     C     0.0464     0.9165     0.5502
A_3     C     0.0195     0.35     0.3179
A_0     C     0.9938     0.4336     0.2455
A_2     C     0.6817     0.4623     0.5306
A_1     C     0.7097     0.7667     0.9637
A_1     C     0.2672     0.591     0.4154
A_2     C     0.5032     0.5648     0.8387
A_1     C     0.4842     0.711     0.186
A_2     C     0.3155     0.212     0.193
A_2     C     0.256     0.079     0.1737
A_2     C     0.4433     0.9522     0.2963
A_1     C     0.6117     0.1945     0.5331
A_3     C     0.3582     0.1328     0.4078
A_3     C     0.8548     0.9123     0.5498
A_2     C     0.6412     0.0884     0.8851
A_0     C     0.9784     0.5371     0.6023
A_1     C     0.0222     0.4551     0.9302
A_1     C     0.4788     0.7203     0.6648
A_1     C     0.4466     0.4434     0.8571
A_2     C     0.3264     0.6399     0.738
A_2     C     0.5266     0.698     0.8341
A_3     C     0.0591     0.9008     0.5754
A_0     C     0.8179     0.5698     0.7381
A_2     C     0.8997     0.2093     0.5909
A_2     C     0.3787     0.5868     0.5211
A_0     C     0.7099     0.7276     0.0306
A_3     C     0.8281     0.0748     0.0101
A_1     C     0.9545     0.7214     0.597
A_2     C     0.0766     0.1699     0.8382
A_2     C     0.5335     0.24     0.9783
A_3     C     0.3187     0.9148     0.1213
A_3     C     0.1544     0.2012     0.4775
A_1     C     0.9011     0.6893     0.8226
A_0     C     0.1956     0.4275     0.1573
A_0     C     0.5045     0.4481     0.1319
A_0     C     0.549     0.0701     0.9465
A_1     C     0.5116     0.8978     0.5745
A_3     C     0.659     0.9871     0.376
A_1     C     0.311     0.324     0.233
A_2     C     0.8378     0.3615     0.9816
A_3     C     0.4944     0.6472     0.5399
A_1     C     0.6131     0.3754     0.6275
A_1     C     0.8586     0.0019     0.6994
A_3     C     0.9478     0.9122     0.2469
A_0     C     0.7462     0.5355     0.7046
A_3     C     0.4627     0.0402     0.2455
A_0     C     0.615     0.0506     0.9151
A_0     C     0.8995     0.7441     0.5716
A_2     C     0.8234     0.0121     0.5313
A_3     C     0.3462     0.9331     0.37
A_0     C     0.8763     0.2036     0.1103
