MAT-37

loop_
_symmetry_equiv_pos_as_xyz
  x,y,z
_cell_length_a          21.1837
_cell_length_b          51.5498
_cell_length_c          16.6825
_cell_angle_alpha       90.0000
_cell_angle_beta        90.0000
_cell_angle_gamma       90.0000
loop_
_atom_site_label
_atom_site_type_symbol
_atom_site_fract_x
_atom_site_fract_y
_atom_site_fract_z
A_2     C     0.0011     0.3232     0.7871
A_3     C     0.0212     0.3216     0.7445
A_3     C     0.226     0.5068     0.2696
A_3     C     0.451     0.7112     0.5658
A_1     C     0.4257     0.3083     0.7244
A_0     C     0.6301     0.8567     0.8254
A_1     C     0.4042     0.5033     0.4243
A_1     C     0.592     0.2502     0.7066
A_1     C     0.7503     0.7383     0.6998
A_2     C     0.9956     0.2594     0.8185
A_0     C     0.443     0.0648     0.0276
A_3     C     0.5249     0.8177     0.6528
A_1     C     0.8024     0.4412     0.3813
A_0     C     0.6073     0.989     0.2948
A_1     C     0.4161     0.6274     0.473
A_0     C     0.4806     0.1536     0.5914
A_0     C     0.7475     0.526     0.8667
A_3     C     0.8592     0.2743     0.0101
A_3     C     0.2331     0.2137     0.9054
A_0     C     0.7343     0.3512     0.407
A_0     C     0.6066     0.5698     0.4305
A_3     C     0.509     0.5732     0.5459
A_1     C     0.3782     0.589     0.895
A_1     C     0.6467     0.1037     0.1669
A_1     C     0.9534     0.3602     0.6432
A_2     C     0.3069     0.5119     0.5496
A_2     C     0.0652     0.2986     0.3508
A_1     C     0.9401     0.0124     0.7253
A_2     C     0.1103     0.8945     0.5112
A_3     C     0.4494     0.1872     0.1618
A_2     C     0.6874     0.9987     0.4112
A_0     C     0.346     0.277     0.4139
A_0     C     0.9222     0.4263     0.4152
A_2     C     0.3733     0.0688     0.5773
A_1     C     0.4251     0.4647     0.0917
A_1     C     0.2072     0.4023     0.55
A_3     C     0.3148     0.7735     0.0853
A_2     C     0.1816     0.4949     0.0521
A_2     C     0.1589     0.3191     0.5732
A_2     C     0.1581     0.2282     0.9165
A_2     C     0.8755     0.6682     0.356
A_3     C     0.6798     0.9309     0.0235
A_2     C     0.6199     0.8413     0.6216
A_0     C     0.2165     0.6011     0.3882
A_1     C     0.336     0.5479     0.5375
A_3     C     0.7449     0.7973     0.0948
A_2     C     0.3935     0.6956     0.3034
A_1     C     0.6894     0.609     0.9088
A_1     C     0.799     0.7474     0.4386
A_3     C     0.7394     0.5638     0.5158
A_0     C     0.395     0.2455     0.0437
A_2     C     0.0507     0.9951     0.5505
A_0     C     0.0221     0.9325     0.362
A_0     C     0.2838     0.5036     0.9997
A_1     C     0.0775     0.7577     0.0813
A_2     C     0.1524     0.3796     0.0628
A_1     C     0.2679     0.8191     0.3666
A_3     C     0.4762     0.6891     0.6608
A_0     C     0.7623     0.6355     0.9523
A_2     C     0.8863     0.5654     0.2588
A_2     C     0.9275     0.1256     0.714
A_1     C     0.7723     0.2994     0.9187
A_0     C     0.8179     0.3233     0.3254
A_0     C     0.2965     0.9596     0.5554
A_2     C     0.6478     0.1952     0.8198
A_3     C     0.2307     0.3338     0.3663
A_2     C     0.3453     0.0195     0.2208
A_2     C     0.9791     0.1116     0.9812
A_2     C     0.7978     0.5506     0.8992
A_3     C     0.1813     0.9144     0.3552
A_0     C     0.7092     0.3171     0.4997
A_0     C     0.9194     0.7537     0.5406
A_3     C     0.2799     0.8732     0.9851
A_0     C     0.0192     0.6075     0.5188
A_0     C     0.0785     0.66     0.8651
A_1     C     0.1723     0.945     0.0761
A_3     C     0.736     0.0001     0.8747
A_0     C     0.7655     0.4605     0.248
A_3     C     0.872     0.0012     0.8494
A_3     C     0.0743     0.56     0.1935
A_0     C     0.4661     0.7537     0.6962
A_0     C     0.6774     0.6131     0.7277
A_0     C     0.3157     0.5255     0.9372
A_2     C     0.6488     0.7231     0.685
A_1     C     0.6054     0.7423     0.725
A_3     C     0.6923     0.3834     0.8982
A_0     C     0.6985     0.019     0.81
A_0     C     0.6171     0.6256     0.3914
A_1     C     0.6505     0.7699     0.2955
A_2     C     0.6921     0.9388     0.5652
A_1     C     0.6998     0.4267     0.2523
A_2     C     0.3956     0.4955     0.6156
A_3     C     0.6603     0.1156     0.8041
A_1     C     0.853     0.2223     0.3734
A_0     C     0.2758     0.5629     0.0034
A_0     C     0.4564     0.6412     0.2596
A_1     C     0.8529     0.0881     0.7459
A_1     C     0.917     0.9953     0.4797
A_0     C     0.3842     0.3339     0.0207
A_2     C     0.1659     0.3015     0.4807
A_3     C     0.8622     0.0875     0.8125
A_0     C     0.0542     0.0682     0.8575
A_0     C     0.69     0.6905     0.7779
A_1     C     0.2142     0.6402     0.9564
A_0     C     0.643     0.0164     0.3377
A_1     C     0.0293     0.0538     0.4255
A_2     C     0.2622     0.7491     0.8881
A_0     C     0.3045     0.8508     0.5831
A_3     C     0.5043     0.9868     0.7735
A_2     C     0.2621     0.6864     0.8895
A_3     C     0.7485     0.984     0.8643
A_1     C     0.1318     0.6604     0.5358
A_2     C     0.2998     0.2122     0.2611
A_3     C     0.1195     0.3192     0.8151
A_2     C     0.5884     0.4909     0.5989
A_2     C     0.2447     0.9623     0.1164
A_1     C     0.7719     0.7288     0.3691
A_2     C     0.641     0.2071     0.7023
A_1     C     0.0946     0.6526     0.5529
A_2     C     0.3381     0.0304     0.2943
A_2     C     0.5789     0.0173     0.4933
A_3     C     0.2384     0.1973     0.6742
A_3     C     0.9643     0.0438     0.3545
A_0     C     0.5651     0.9966     0.0341
A_0     C     0.401     0.4138     0.634
A_2     C     0.7339     0.9532     0.9867
A_1     C     0.4528     0.5782     0.2967
A_0     C     0.0755     0.9133     0.4938
A_1     C     0.8544     0.5601     0.4316
A_3     C     0.7161     0.3908     0.8798
A_2     C     0.2608     0.34     0.5814
A_2     C     0.3943     0.1407     0.8068
A_0     C     0.687     0.2911     0.0421
A_1     C     0.6817     0.6909     0.1996
A_2     C     0.4512     0.3676     0.0384
A_3     C     0.5226     0.7919     0.6727
A_0     C     0.0622     0.3505     0.8804
A_2     C     0.6436     0.1459     0.4405
A_1     C     0.767     0.2162     0.1595
A_3     C     0.1039     0.4164     0.7491
A_1     C     0.0737     0.5903     0.7827
A_0     C     0.3103     0.7949     0.5653
A_2     C     0.4254     0.5805     0.8345
A_0     C     0.6746     0.9056     0.6925
A_1     C     0.8642     0.6038     0.8836
A_0     C     0.671     0.685     0.3801
A_0     C     0.3117     0.8489     0.3884
A_0     C     0.3865     0.2444     0.0982
A_1     C     0.3439     0.3092     0.3669
A_0     C     0.7027     0.3188     0.993
A_1     C     0.9112     0.0452     0.0417
A_3     C     0.2578     0.6142     0.9293
A_0     C     0.5923     0.4024     0.8237
A_1     C     0.4192     0.8601     0.0346
A_0     C     0.2152     0.382     0.8717
A_0     C     0.1241     0.5014     0.5606
A_2     C     0.7541     0.9305     0.5134
A_1     C     0.5554     0.1848     0.339
A_2     C     0.1791     0.8907     0.7732
A_0     C     0.5642     0.8798     0.9965
A_0     C     0.0315     0.7863     0.9157
A_2     C     0.2789     0.611     0.4911
A_3     C     0.6228     0.483     0.7797
A_0     C     0.7245     0.019     0.0241
A_2     C     0.0845     0.851     0.1062
A_0     C     0.509     0.4877     0.6119
A_0     C     0.0562     0.7535     0.7074
A_1     C     0.7706     0.0954     0.3526
A_3     C     0.5262     0.2596     0.3891
A_0     C     0.9195     0.2225     0.6726
A_2     C     0.4806     0.7515     0.4273
A_0     C     0.8941     0.1573     0.7922
A_1     C     0.6449     0.0921     0.0601
A_0     C     0.8265     0.3731     0.967
A_0     C     0.2551     0.8835     0.823
A_0     C     0.1343     0.8077     0.2963
A_3     C     0.6006     0.1858     0.4672
A_3     C     0.9457     0.7814     0.7037
A_2     C     0.4652     0.8061     0.4857
A_3     C     0.98     0.8635     0.018
A_2     C     0.4426     0.4592     0.0596
A_0     C     0.2817     0.1833     0.1615
A_2     C     0.4389     0.8129     0.0148
A_3     C     0.1352     0.9484     0.6768
A_1     C     0.9359     0.9129     0.7309
A_1     C     0.5941     0.3228     0.8133
A_2     C     0.0082     0.837     0.0183
A_2     C     0.426     0.7285     0.7004
A_1     C     0.6617     0.6246     0.444
A_1     C     0.8816     0.3604     0.9023
A_2     C     0.6573     0.1269     0.5406
A_3     C     0.837     0.3191     0.1876
A_1     C     0.734     0.3376     0.6476
A_3     C     0.6243     0.6895     0.8003
A_2     C     0.0438     0.5269     0.7925
A_3     C     0.2493     0.6065     0.6437
A_0     C     0.7908     0.3778     0.3781
A_3     C     0.337     0.7241     0.3415
A_2     C     0.8458     0.3332     0.1824
A_0     C     0.6654     0.1703     0.4986
A_2     C     0.4141     0.0096     0.0753
A_0     C     0.4365     0.4092     0.2928
A_0     C     0.1896     0.748     0.3812
A_2     C     0.4434     0.038     0.0773
A_1     C     0.4398     0.3754     0.1384
A_1     C     0.178     0.8172     0.2343
A_1     C     0.7746     0.5213     0.2807
A_1     C     0.2913     0.8737     0.778
A_1     C     0.6207     0.7868     0.3959
A_0     C     0.1798     0.2666     0.4864
A_1     C     0.6741     0.6726     0.9856
A_3     C     0.8068     0.7406     0.4016
A_0     C     0.4861     0.7399     0.5505
A_2     C     0.4634     0.948     0.2387
A_0     C     0.7102     0.6483     0.997
A_0     C     0.7599     0.3446     0.4542
A_3     C     0.5055     0.6801     0.3699
A_2     C     0.3169     0.8102     0.6846
A_2     C     0.3261     0.0713     0.5865
A_1     C     0.9661     0.6691     0.2544
A_1     C     0.0378     0.6281     0.1942
A_2     C     0.6642     0.2258     0.4233
A_2     C     0.6394     0.9028     0.4315
A_2     C     0.5866     0.9407     0.8752
A_2     C     0.7345     0.3703     0.8399
A_3     C     0.6174     0.4778     0.9178
A_1     C     0.9619     0.554     0.5589
A_0     C     0.004     0.2022     0.2252
A_0     C     0.9827     0.9901     0.6168
A_0     C     0.4328     0.8191     0.254
A_3     C     0.1194     0.6678     0.8026
A_1     C     0.9743     0.6084     0.7762
A_0     C     0.7613     0.4879     0.0732
A_0     C     0.0762     0.5294     0.0537
A_3     C     0.2697     0.3159     0.6931
A_3     C     0.951     0.1173     0.4616
A_2     C     0.71     0.7791     0.1081
A_0     C     0.3681     0.2858     0.628
A_3     C     0.4994     0.7421     0.5395
A_0     C     0.9122     0.9486     0.6818
A_0     C     0.6745     0.379     0.9183
A_2     C     0.5478     0.8654     0.6911
A_1     C     0.6831     0.8974     0.0248
A_2     C     0.495     0.2593     0.3497
A_2     C     0.9056     0.3674     0.5551
A_1     C     0.3614     0.5989     0.4266
A_2     C     0.3485     0.0653     0.9868
A_2     C     0.7608     0.5031     0.6859
A_3     C     0.5532     0.069     0.6408
A_0     C     0.6882     0.8471     0.6266
A_3     C     0.6663     0.3467     0.5329
A_0     C     0.5372     0.7199     0.2167
A_3     C     0.1084     0.2418     0.1029
A_0     C     0.8483     0.6252     0.194
A_1     C     0.3088     0.2634     0.6393
A_0     C     0.3235     0.3672     0.9206
A_2     C     0.3438     0.5469     0.5785
A_1     C     0.6452     0.3075     0.2141
A_1     C     0.9405     0.7246     0.2901
A_2     C     0.2936     0.5597     0.8165
A_2     C     0.8654     0.8666     0.5861
A_3     C     0.8352     0.0056     0.9472
A_0     C     0.4745     0.4213     0.7425
A_2     C     0.324     0.5124     0.082
A_1     C     0.5896     0.7545     0.3983
A_1     C     0.3253     0.7317     0.0238
A_2     C     0.6525     0.4451     0.8779
A_0     C     0.0415     0.2986     0.506
A_1     C     0.2394     0.9879     0.4306
A_3     C     0.6653     0.9153     0.8796
A_0     C     0.2658     0.944     0.5767
A_1     C     0.8179     0.6147     0.4908
A_3     C     0.4212     0.4901     0.1894
A_1     C     0.5675     0.3642     0.5727
A_3     C     0.1228     0.2035     0.8628
A_2     C     0.8839     0.7323     0.6711
A_2     C     0.0953     0.3833     0.4239
A_2     C     0.8569     0.9668     0.761
A_2     C     0.0482     0.6697     0.3373
A_2     C     0.8484     0.4354     0.2365
A_2     C     0.0165     0.6201     0.183
A_0     C     0.4447     0.5828     0.5864
A_3     C     0.5215     0.7737     0.0286
A_3     C     0.2967     0.7279     0.1204
A_3     C     0.5273     0.1001     0.9825
A_0     C     0.7272     0.029     0.8258
A_0     C     0.7963     0.4689     0.6264
A_1     C     0.2333     0.016     0.0835
A_1     C     0.0834     0.7973     0.2116
A_0     C     0.2653     0.7408     0.638
A_1     C     0.1498     0.0195     0.8807
A_0     C     0.4064     0.5834     0.9745
A_1     C     0.9068     0.5984     0.7858
A_2     C     0.3408     0.9187     0.0059
A_2     C     0.4094     0.291     0.5978
A_2     C     0.2835     0.3422     0.1266
A_0     C     0.9916     0.2641     0.3066
A_2     C     0.2415     0.8247     0.1404
A_3     C     0.6835     0.709     0.1912
A_3     C     0.6669     0.5783     0.9852
A_1     C     0.1631     0.2859     0.6579
A_3     C     0.1652     0.1693     0.9379
A_3     C     0.2981     0.8686     0.5209
A_0     C     0.8474     0.7732     0.2672
A_1     C     0.71     0.0347     0.3612
A_0     C     0.2182     0.3157     0.2708
A_1     C     0.6291     0.0646     0.7702
A_2     C     0.463     0.094     0.478
A_0     C     0.2202     0.8939     0.7095
A_1     C     0.2091     0.9463     0.729
A_3     C     0.1563     0.1715     0.6397
A_1     C     0.7067     0.6967     0.4229
A_3     C     0.8242     0.5774     0.4813
A_3     C     0.6633     0.5253     0.2071
A_1     C     0.4594     0.2335     0.5538
A_1     C     0.3216     0.1818     0.4529
A_0     C     0.2901     0.631     0.6373
A_0     C     0.5371     0.3383     0.6416
A_1     C     0.8567     0.2718     0.6326
A_0     C     0.9159     0.9413     0.7998
A_0     C     0.0483     0.4522     0.3144
A_3     C     0.9489     0.6731     0.6181
A_1     C     0.3786     0.207     0.0086
A_0     C     0.9352     0.9567     0.6501
A_0     C     0.8619     0.8105     0.3349
A_0     C     0.8265     0.3171     0.8603
A_0     C     0.2871     0.2815     0.9873
A_3     C     0.1841     0.2158     0.559
A_1     C     0.9102     0.8866     0.245
A_1     C     0.7709     0.1274     0.2745
A_0     C     0.0315     0.0503     0.5922
A_0     C     0.5372     0.0008     0.2637
A_2     C     0.8471     0.5354     0.7581
A_1     C     0.2481     0.5926     0.3663
A_3     C     0.6733     0.2404     0.4162
A_3     C     0.0134     0.031     0.761
A_0     C     0.938     0.5032     0.7981
A_3     C     0.2921     0.7244     0.5584
A_0     C     0.7495     0.4635     0.3475
A_1     C     0.0406     0.1294     0.3361
A_0     C     0.1582     0.8067     0.2568
A_0     C     0.3937     0.533     0.5174
A_3     C     0.4886     0.9831     0.9556
A_0     C     0.3825     0.8078     0.9215
A_3     C     0.9942     0.9068     0.7748
A_3     C     0.1562     0.6563     0.8715
A_0     C     0.8625     0.2767     0.8665
A_1     C     0.6264     0.8318     0.6369
A_0     C     0.6441     0.8692     0.8646
A_1     C     0.899     0.0432     0.4205
A_1     C     0.353     0.3398     0.8053
A_1     C     0.8958     0.8694     0.8062
A_1     C     0.9699     0.1949     0.2133
A_0     C     0.7641     0.3079     0.8394
A_0     C     0.1191     0.9779     0.8678
A_1     C     0.3448     0.2509     0.0922
A_2     C     0.4917     0.0857     0.4803
A_2     C     0.0588     0.0141     0.9475
A_1     C     0.1792     0.3382     0.787
A_3     C     0.0595     0.4254     0.4383
A_3     C     0.1655     0.6016     0.441
A_0     C     0.5486     0.4315     0.9899
A_2     C     0.646     0.9795     0.2095
A_1     C     0.6662     0.8894     0.3101
A_2     C     0.3722     0.1422     0.9665
A_1     C     0.8366     0.6827     0.2884
A_3     C     0.7754     0.4399     0.2824
A_3     C     0.7154     0.4432     0.1578
A_1     C     0.9079     0.1251     0.0309
A_1     C     0.957     0.0014     0.1651
A_2     C     0.9752     0.7182     0.5944
A_2     C     0.5513     0.4592     0.8936
A_2     C     0.6778     0.4193     0.0693
A_2     C     0.8237     0.7388     0.7934
A_2     C     0.6069     0.786     0.0186
A_0     C     0.1549     0.0684     0.8167
A_2     C     0.3636     0.9242     0.7322
A_3     C     0.3027     0.8011     0.7704
A_2     C     0.8277     0.2249     0.8447
A_2     C     0.352     0.5811     0.0421
A_0     C     0.4731     0.5422     0.0254
A_2     C     0.9985     0.625     0.6582
A_3     C     0.9084     0.1219     0.1258
A_2     C     0.1751     0.1851     0.6923
A_3     C     0.9852     0.5747     0.8663
A_3     C     0.4838     0.7131     0.8395
A_1     C     0.3542     0.0683     0.0672
A_0     C     0.967     0.2286     0.5526
A_1     C     0.1427     0.2904     0.7208
A_3     C     0.6004     0.2538     0.4664
A_0     C     0.5378     0.0691     0.6024
A_1     C     0.8249     0.0166     0.435
A_0     C     0.1202     0.7065     0.944
A_2     C     0.2034     0.2632     0.0575
A_3     C     0.765     0.8887     0.4234
A_3     C     0.2125     0.506     0.0677
A_3     C     0.1796     0.4242     0.1017
A_2     C     0.178     0.579     0.4423
A_0     C     0.508     0.0136     0.8198
A_0     C     0.2875     0.7467     0.124
A_1     C     0.4325     0.6767     0.8013
A_0     C     0.7575     0.6266     0.0382
A_2     C     0.2261     0.2123     0.5551
A_1     C     0.0141     0.5159     0.5593
A_3     C     0.0322     0.7561     0.5844
A_2     C     0.7298     0.1251     0.5259
A_2     C     0.1592     0.7357     0.8253
A_1     C     0.038     0.4079     0.8018
A_2     C     0.1025     0.1493     0.6844
A_3     C     0.7997     0.5558     0.0223
A_2     C     0.4644     0.7415     0.1866
A_0     C     0.3448     0.3459     0.5392
A_0     C     0.9784     0.0231     0.9922
A_3     C     0.4198     0.3506     0.1005
A_3     C     0.9625     0.2309     0.5377
A_0     C     0.3201     0.2009     0.1796
A_0     C     0.0629     0.9881     0.826
A_2     C     0.3883     0.3151     0.3143
A_2     C     0.6092     0.851     0.6044
A_3     C     0.0871     0.7981     0.9691
A_1     C     0.307     0.4698     0.2333
A_3     C     0.0041     0.5405     0.7362
A_3     C     0.3215     0.8798     0.5883
A_1     C     0.2229     0.9637     0.2105
A_1     C     0.406     0.4721     0.9945
A_2     C     0.1041     0.6911     0.1982
A_3     C     0.6778     0.1109     0.6393
A_2     C     0.7985     0.9685     0.7823
A_3     C     0.0863     0.6516     0.291
A_0     C     0.7892     0.3469     0.7016
A_0     C     0.658     0.9773     0.1322
A_1     C     0.7962     0.8469     0.8712
A_1     C     0.9765     0.3967     0.1176
A_0     C     0.8626     0.4081     0.6304
A_2     C     0.4133     0.523     0.2846
A_2     C     0.4701     0.3355     0.6883
A_2     C     0.3115     0.1296     0.9939
A_2     C     0.0331     0.6189     0.839
A_0     C     0.287     0.5881     0.9971
A_2     C     0.9923     0.3005     0.4443
A_2     C     0.8735     0.3909     0.8912
A_0     C     0.7917     0.8283     0.0719
A_0     C     0.5373     0.4773     0.6037
A_3     C     0.484     0.592     0.8186
A_1     C     0.3962     0.9585     0.2301
A_2     C     0.1091     0.1697     0.8714
A_0     C     0.7776     0.4094     0.6343
A_3     C     0.4471     0.5814     0.4824
A_2     C     0.3261     0.9216     0.919
A_3     C     0.5739     0.638     0.9943
A_1     C     0.0154     0.5351     0.6607
A_2     C     0.7551     0.1813     0.3178
A_1     C     0.0655     0.1084     0.3832
A_0     C     0.6926     0.1577     0.25
A_1     C     0.8766     0.0528     0.9543
A_1     C     0.6723     0.3094     0.1771
A_0     C     0.5885     0.1795     0.4706
A_0     C     0.2357     0.0806     0.7993
A_2     C     0.2314     0.1217     0.5811
A_3     C     0.3285     0.3791     0.6548
A_0     C     0.593     0.4991     0.2668
A_1     C     0.3111     0.9694     0.4082
A_1     C     0.5581     0.6176     0.1212
A_1     C     0.9219     0.1386     0.0615
A_0     C     0.2687     0.6279     0.6807
A_0     C     0.2788     0.8551     0.1631
A_0     C     0.3883     0.0049     0.1669
A_3     C     0.1567     0.82     0.7739
A_0     C     0.6313     0.31     0.7664
A_0     C     0.4518     0.8269     0.5298
A_2     C     0.4959     0.9888     0.1004
A_1     C     0.0967     0.4752     0.1571
A_3     C     0.2517     0.7279     0.6964
A_2     C     0.5635     0.0209     0.7088
A_0     C     0.4664     0.3452     0.6982
A_0     C     0.8181     0.4548     0.8115
A_2     C     0.0552     0.8529     0.626
A_3     C     0.1966     0.3233     0.67
A_0     C     0.4213     0.255     0.0988
A_1     C     0.3694     0.4285     0.2859
A_0     C     0.4867     0.6422     0.6162
A_1     C     0.7804     0.0374     0.1791
A_1     C     0.5382     0.8534     0.8255
A_2     C     0.4124     0.43     0.3666
A_2     C     0.2913     0.2625     0.8302
A_1     C     0.9988     0.0151     0.3858
A_2     C     0.3545     0.8108     0.9855
A_2     C     0.8549     0.0517     0.3017
A_0     C     0.9431     0.7447     0.3987
A_2     C     0.3924     0.9529     0.5919
A_3     C     0.941     0.8533     0.1574
A_1     C     0.417     0.3262     0.5048
A_0     C     0.342     0.2205     0.7148
A_1     C     0.3582     0.8226     0.6373
A_1     C     0.4801     0.5312     0.3227
A_1     C     0.0103     0.84     0.4999
A_0     C     0.7243     0.7365     0.6485
A_1     C     0.7348     0.7217     0.7514
A_3     C     0.582     0.6882     0.2329
A_2     C     0.3338     0.1474     0.3182
A_2     C     0.151     0.4178     0.9703
A_0     C     0.9293     0.7006     0.0671
A_3     C     0.2661     0.3154     0.0297
A_1     C     0.594     0.2983     0.5139
A_3     C     0.1256     0.0045     0.4005
A_1     C     0.0441     0.0423     0.3465
A_0     C     0.1367     0.8016     0.9737
A_3     C     0.209     0.7737     0.0257
A_3     C     0.056     0.3988     0.5214
A_1     C     0.7334     0.6018     0.9403
A_0     C     0.7745     0.9741     0.7007
A_0     C     0.7726     0.1532     0.1937
A_3     C     0.3608     0.9288     0.1497
A_1     C     0.4348     0.9696     0.1381
A_0     C     0.8254     0.9779     0.196
A_0     C     0.2466     0.4311     0.9043
A_3     C     0.5669     0.4555     0.0428
A_3     C     0.3338     0.263     0.3815
A_0     C     0.0742     0.0555     0.5139
A_1     C     0.6188     0.5818     0.9053
A_1     C     0.6383     0.1223     0.1206
A_3     C     0.6511     0.8949     0.5922
A_2     C     0.9101     0.271     0.8692
A_3     C     0.5885     0.9918     0.6293
A_3     C     0.8897     0.069     0.8337
A_0     C     0.4776     0.0424     0.9447
A_3     C     0.2697     0.9659     0.1942
A_0     C     0.6875     0.5653     0.2294
A_2     C     0.7798     0.2787     0.8102
A_2     C     0.8261     0.4119     0.5312
A_0     C     0.2347     0.3775     0.1376
A_2     C     0.8     0.6045     0.2095
A_2     C     0.431     0.622     0.5275
A_3     C     0.2423     0.7712     0.0366
A_0     C     0.5281     0.8609     0.5128
A_1     C     0.1773     0.908     0.4219
A_0     C     0.7749     0.0141     0.4012
A_1     C     0.6162     0.3073     0.3453
A_3     C     0.9465     0.5476     0.9919
A_2     C     0.1424     0.8749     0.652
A_1     C     0.613     0.451     0.8254
A_1     C     0.3566     0.8084     0.1618
A_2     C     0.9693     0.5566     0.284
A_1     C     0.3518     0.644     0.7063
A_0     C     0.6984     0.8464     0.0914
A_2     C     0.627     0.7156     0.8663
A_1     C     0.5838     0.1575     0.3559
A_2     C     0.2376     0.5929     0.5843
A_1     C     0.5886     0.3785     0.6033
A_1     C     0.6599     0.1061     0.328
A_1     C     0.8098     0.8438     0.4369
A_0     C     0.8989     0.1209     0.0147
A_1     C     0.6391     0.9393     0.0309
A_0     C     0.169     0.1928     0.8298
A_3     C     0.621     0.8148     0.3155
A_2     C     0.647     0.7415     0.0712
A_0     C     0.3155     0.6539     0.7301
A_2     C     0.1086     0.4841     0.6922
A_0     C     0.8461     0.2649     0.7171
A_2     C     0.9853     0.3612     0.6884
A_2     C     0.1358     0.7153     0.6407
A_3     C     0.1003     0.6426     0.8063
A_1     C     0.2368     0.1724     0.3932
A_3     C     0.7992     0.0132     0.5732
A_1     C     0.1779     0.0904     0.6095
A_3     C     0.5591     0.863     0.5513
A_3     C     0.7844     0.5648     0.3184
A_2     C     0.4825     0.1013     0.1658
A_0     C     0.4174     0.0565     0.4591
A_2     C     0.8105     0.1769     0.5777
A_0     C     0.9542     0.5797     0.5091
A_2     C     0.7822     0.5049     0.0015
A_2     C     0.6457     0.0643     0.7274
A_0     C     0.0119     0.9652     0.4084
A_0     C     0.4923     0.7823     0.375
A_1     C     0.9282     0.4542     0.3067
A_1     C     0.4133     0.3463     0.2593
A_1     C     0.5652     0.8662     0.5103
A_0     C     0.0311     0.8196     0.8015
A_2     C     0.4423     0.3473     0.6927
A_1     C     0.9486     0.8882     0.2975
A_3     C     0.708     0.3883     0.1627
A_3     C     0.6816     0.2177     0.1218
A_1     C     0.2043     0.9976     0.0115
A_2     C     0.6771     0.854     0.3905
A_3     C     0.7095     0.5771     0.3499
A_0     C     0.4161     0.2804     0.0158
A_1     C     0.2858     0.3851     0.7232
A_3     C     0.6027     0.5318     0.0981
A_3     C     0.8995     0.9856     0.3502
A_3     C     0.0198     0.7796     0.438
A_0     C     0.6262     0.2813     0.6796
A_1     C     0.8596     0.0011     0.4655
A_3     C     0.382     0.5418     0.668
A_2     C     0.5332     0.2776     0.0569
A_3     C     0.4674     0.5694     0.4432
A_0     C     0.0448     0.2748     0.4542
A_3     C     0.6469     0.5079     0.3415
A_3     C     0.537     0.8929     0.1939
A_2     C     0.4565     0.3892     0.3136
A_0     C     0.6508     0.6884     0.2465
A_1     C     0.9227     0.793     0.5269
A_1     C     0.0828     0.132     0.4003
A_3     C     0.1302     0.9232     0.0783
A_0     C     0.411     0.395     0.628
A_1     C     0.6025     0.5192     0.6807
A_1     C     0.9183     0.4632     0.5789
A_1     C     0.7972     0.8784     0.3382
A_3     C     0.8392     0.429     0.8881
A_1     C     0.5485     0.1079     0.1029
A_0     C     0.0728     0.7469     0.457
A_3     C     0.0791     0.3821     0.9067
A_1     C     0.299     0.0892     0.3039
A_2     C     0.4053     0.2209     0.4465
A_2     C     0.6034     0.6823     0.8841
A_1     C     0.9037     0.3123     0.2329
A_1     C     0.9702     0.2423     0.763
A_1     C     0.7322     0.3372     0.9725
A_3     C     0.022     0.3929     0.3465
A_0     C     0.7729     0.166     0.2742
A_2     C     0.2268     0.2335     0.0243
A_1     C     0.4586     0.3535     0.9881
A_1     C     0.9161     0.1064     0.8347
A_2     C     0.1297     0.9881     0.4631
A_3     C     0.7679     0.062     0.6446
A_1     C     0.0746     0.3639     0.9682
A_2     C     0.3727     0.1151     0.7346
A_3     C     0.7642     0.45     0.9628
A_0     C     0.4193     0.7064     0.959
A_2     C     0.2955     0.6202     0.6936
A_1     C     0.5546     0.4651     0.4738
A_2     C     0.2095     0.6431     0.3426
A_2     C     0.7517     0.2939     0.7323
A_3     C     0.2401     0.1559     0.3566
A_2     C     0.729     0.5497     0.2574
A_2     C     0.7562     0.5997     0.683
A_1     C     0.4925     0.6501     0.1894
A_1     C     0.711     0.9794     0.8769
A_0     C     0.597     0.3727     0.0919
A_2     C     0.4091     0.456     0.6472
A_3     C     0.7655     0.9126     0.4999
A_2     C     0.9311     0.1201     0.4419
A_1     C     0.0141     0.8216     0.2371
A_2     C     0.1901     0.5956     0.037
A_0     C     0.1042     0.0098     0.533
A_1     C     0.7185     0.1068     0.2206
A_0     C     0.8375     0.4271     0.2361
A_0     C     0.905     0.813     0.0234
A_1     C     0.8957     0.9408     0.3315
A_2     C     0.9713     0.2222     0.0229
A_1     C     0.6117     0.6225     0.4831
A_2     C     0.337     0.3823     0.4309
A_0     C     0.101     0.4466     0.9014
A_2     C     0.8796     0.0866     0.6071
A_2     C     0.3176     0.5748     0.684
A_2     C     0.7547     0.383     0.7635
A_0     C     0.6218     0.1931     0.9057
A_3     C     0.6041     0.3263     0.3466
A_2     C     0.0112     0.4959     0.9715
A_0     C     0.4959     0.989     0.3012
A_2     C     0.7216     0.4414     0.3631
A_1     C     0.9087     0.2286     0.6869
A_2     C     0.4877     0.0825     0.8115
A_3     C     0.4042     0.6142     0.4893
A_0     C     0.0085     0.9748     0.8581
A_3     C     0.6077     0.2213     0.1055
A_2     C     0.1216     0.8981     0.7024
A_3     C     0.2493     0.7797     0.6671
A_2     C     0.5062     0.5546     0.836
A_3     C     0.0228     0.4143     0.6539
A_2     C     0.6643     0.2392     0.8339
A_1     C     0.4761     0.8222     0.6721
A_0     C     0.96     0.9723     0.2798
A_1     C     0.2803     0.2854     0.6884
A_2     C     0.5573     0.8811     0.1958
A_0     C     0.3749     0.3633     0.6044
A_1     C     0.4967     0.9015     0.2798
A_3     C     0.5553     0.5483     0.024
A_0     C     0.5921     0.5568     0.3053
A_1     C     0.542     0.3571     0.4257
A_1     C     0.2317     0.7969     0.3391
A_3     C     0.1834     0.3979     0.0513
A_0     C     0.8169     0.3796     0.867
A_1     C     0.6493     0.4176     0.8111
A_1     C     0.7677     0.6635     0.2062
A_2     C     0.0925     0.6145     0.1498
A_2     C     0.4454     0.6628     0.4114
A_1     C     0.7358     0.0947     0.5327
A_3     C     0.8298     0.7404     0.6678
A_0     C     0.2039     0.2216     0.1902
A_0     C     0.8343     0.9661     0.0995
A_0     C     0.7143     0.766     0.5876
A_2     C     0.6322     0.0121     0.9496
A_2     C     0.4732     0.9342     0.0049
A_0     C     0.3885     0.0077     0.5786
A_0     C     0.3035     0.5804     0.1092
A_3     C     0.6945     0.7135     0.2319
A_0     C     0.1235     0.0068     0.8656
A_1     C     0.6432     0.5062     0.4867
A_2     C     0.6965     0.5244     0.5927
A_3     C     0.693     0.5577     0.013
A_2     C     0.7447     0.1807     0.9853
A_1     C     0.1669     0.0274     0.7012
A_2     C     0.2247     0.3494     0.4797
A_1     C     0.1305     0.5074     0.7439
A_0     C     0.6505     0.4793     0.132
A_3     C     0.3692     0.0346     0.2612
A_1     C     0.7863     0.8212     0.1949
A_1     C     0.7157     0.4962     0.2188
A_2     C     0.5311     0.4879     0.9987
A_2     C     0.4651     0.3971     0.5481
A_0     C     0.6862     0.9697     0.988
A_2     C     0.0011     0.5157     0.5709
A_0     C     0.9015     0.7369     0.8837
A_3     C     0.451     0.9157     0.8039
A_0     C     0.6556     0.7206     0.7796
A_1     C     0.2779     0.118     0.9992
A_2     C     0.3825     0.3988     0.9689
A_2     C     0.8996     0.4676     0.7175
A_0     C     0.079     0.5344     0.5746
A_3     C     0.9872     0.2612     0.6781
A_0     C     0.9545     0.4196     0.5744
A_3     C     0.8217     0.9702     0.5165
A_0     C     0.1362     0.0282     0.3218
A_1     C     0.461     0.306     0.8764
A_3     C     0.0648     0.0236     0.1775
A_1     C     0.4716     0.1292     0.0783
A_2     C     0.8837     0.4613     0.5576
A_3     C     0.0278     0.3741     0.7964
A_3     C     0.7482     0.0963     0.8747
A_0     C     0.2356     0.8332     0.4064
A_0     C     0.5612     0.7121     0.854
A_0     C     0.2478     0.4728     0.4145
A_3     C     0.7475     0.2995     0.8915
A_0     C     0.4506     0.1119     0.6449
A_1     C     0.4842     0.6564     0.5341
A_3     C     0.9085     0.5148     0.5816
A_0     C     0.5632     0.8887     0.9812
A_0     C     0.2178     0.5175     0.9525
A_0     C     0.3166     0.133     0.1202
A_1     C     0.3629     0.9379     0.0533
A_0     C     0.4693     0.8963     0.3393
A_0     C     0.6891     0.7167     0.4949
A_0     C     0.5703     0.3451     0.4767
A_3     C     0.2406     0.6735     0.7829
A_2     C     0.7785     0.2019     0.5649
A_3     C     0.5778     0.779     0.3235
A_3     C     0.0943     0.8758     0.042
A_2     C     0.53     0.6178     0.6924
A_1     C     0.2143     0.1983     0.3509
A_3     C     0.8931     0.1354     0.3311
A_2     C     0.1241     0.8609     0.1814
A_2     C     0.3195     0.2217     0.3961
A_1     C     0.8176     0.7053     0.4682
A_0     C     0.9804     0.8372     0.8435
A_3     C     0.4505     0.9315     0.6364
A_3     C     0.1491     0.3026     0.8426
A_0     C     0.0672     0.3102     0.9487
A_0     C     0.9233     0.8172     0.3089
A_3     C     0.1406     0.269     0.4756
A_0     C     0.3886     0.6334     0.6958
A_1     C     0.5857     0.0484     0.1412
A_3     C     0.0639     0.4808     0.8373
A_3     C     0.7793     0.1471     0.3608
A_0     C     0.0234     0.8624     0.3909
A_2     C     0.188     0.0171     0.4298
A_3     C     0.3512     0.1292     0.3706
A_3     C     0.6813     0.0702     0.7821
A_2     C     0.0202     0.7014     0.0337
A_1     C     0.4382     0.4655     0.4426
A_3     C     0.9469     0.026     0.5774
A_2     C     0.5916     0.8799     0.4191
A_3     C     0.6728     0.9293     0.5285
A_2     C     0.9606     0.5395     0.4729
A_1     C     0.7471     0.4848     0.8871
A_3     C     0.7884     0.8132     0.5328
A_0     C     0.6546     0.3257     0.6927
A_2     C     0.4953     0.7042     0.2186
A_2     C     0.2175     0.9561     0.1857
A_0     C     0.5251     0.1725     0.957
A_3     C     0.4631     0.7675     0.3699
A_0     C     0.0247     0.0447     0.5792
A_0     C     0.6214     0.9657     0.539
A_1     C     0.7212     0.843     0.3214
A_0     C     0.6409     0.8033     0.985
A_1     C     0.2415     0.2792     0.8694
A_2     C     0.1382     0.892     0.8621
A_3     C     0.1286     0.6126     0.2936
A_1     C     0.9918     0.7456     0.9578
A_0     C     0.0386     0.186     0.4202
A_2     C     0.0468     0.7557     0.4944
A_2     C     0.6992     0.2447     0.9768
A_2     C     0.7783     0.8716     0.0662
A_2     C     0.9933     0.9723     0.2083
A_2     C     0.6726     0.3171     0.6769
A_2     C     0.2436     0.9101     0.9295
A_2     C     0.517     0.5961     0.4522
A_0     C     0.7554     0.7781     0.7163
A_3     C     0.8168     0.8022     0.6558
A_2     C     0.9693     0.3877     0.7551
A_2     C     0.4707     0.402     0.9287
A_3     C     0.2192     0.0105     0.1244
A_2     C     0.5563     0.9116     0.6591
A_1     C     0.5638     0.5608     0.9161
A_3     C     0.082     0.2781     0.8466
A_3     C     0.2262     0.4762     0.1452
A_1     C     0.6846     0.6765     0.128
A_0     C     0.7863     0.6142     0.8377
A_2     C     0.1224     0.2768     0.4778
A_2     C     0.23     0.6584     0.7718
A_2     C     0.1529     0.1057     0.4762
A_1     C     0.1319     0.6404     0.6367
A_1     C     0.5338     0.5742     0.7334
A_3     C     0.1276     0.5055     0.4013
A_0     C     0.8244     0.8963     0.5684
A_2     C     0.3364     0.3133     0.6947
A_1     C     0.375     0.5496     0.7664
A_0     C     0.2064     0.7616     0.7555
A_1     C     0.8325     0.885     0.1472
A_2     C     0.0343     0.8982     0.7735
A_1     C     0.1692     0.4792     0.7782
A_1     C     0.5253     0.9591     0.7594
A_2     C     0.5127     0.9206     0.5415
A_1     C     0.7508     0.422     0.6081
A_2     C     0.4233     0.527     0.2992
A_2     C     0.6175     0.6498     0.8886
A_0     C     0.4776     0.2121     0.9953
A_2     C     0.4257     0.9684     0.3153
A_2     C     0.7149     0.6019     0.1911
A_3     C     0.3686     0.1408     0.1041
A_0     C     0.2956     0.7158     0.6108
A_1     C     0.044     0.6006     0.8882
A_0     C     0.5002     0.9998     0.8988
A_0     C     0.8257     0.4256     0.1223
A_0     C     0.9167     0.4961     0.6459
A_3     C     0.343     0.5933     0.8548
A_0     C     0.3615     0.3307     0.1634
A_0     C     0.4196     0.7571     0.509
A_1     C     0.2128     0.0346     0.9236
A_2     C     0.3915     0.46     0.9309
A_0     C     0.8935     0.0811     0.3457
A_0     C     0.5729     0.0092     0.0811
A_3     C     0.0825     0.162     0.6937
A_1     C     0.6231     0.9466     0.9743
A_2     C     0.6424     0.964     0.8004
A_0     C     0.4785     0.4151     0.8089
A_2     C     0.2909     0.7734     0.9026
A_3     C     0.2054     0.507     0.4827
A_0     C     0.9621     0.7989     0.0461
A_3     C     0.5432     0.7945     0.2513
A_3     C     0.3016     0.0511     0.7176
A_3     C     0.0341     0.5238     0.6135
A_1     C     0.4974     0.4977     0.9116
A_0     C     0.566     0.9582     0.4
A_1     C     0.8816     0.1387     0.0373
A_0     C     0.0982     0.0125     0.4472
A_2     C     0.0748     0.3942     0.5928
A_3     C     0.6276     0.2662     0.0492
A_1     C     0.2282     0.1487     0.789
A_3     C     0.7639     0.0683     0.6438
A_0     C     0.0718     0.1545     0.9853
A_1     C     0.4865     0.1795     0.7445
A_1     C     0.1135     0.4372     0.4499
A_3     C     0.0983     0.8025     0.3925
A_1     C     0.4118     0.844     0.6727
A_2     C     0.4238     0.154     0.088
A_3     C     0.6146     0.8246     0.9868
A_0     C     0.3306     0.2605     0.115
A_0     C     0.6555     0.6396     0.1925
A_0     C     0.4376     0.2435     0.0947
A_0     C     0.4581     0.0362     0.2177
A_1     C     0.3608     0.1574     0.1123
A_3     C     0.2305     0.899     0.5202
A_1     C     0.4888     0.2359     0.5654
A_1     C     0.0052     0.7349     0.9906
A_2     C     0.8212     0.4836     0.1186
A_3     C     0.2308     0.9626     0.5079
A_0     C     0.8922     0.3054     0.7013
A_3     C     0.3585     0.7294     0.3785
A_3     C     0.9527     0.4444     0.4582
A_1     C     0.8005     0.6152     0.6783
A_2     C     0.7738     0.5273     0.3802
A_2     C     0.7388     0.5244     0.643
A_1     C     0.7493     0.2984     0.1148
A_1     C     0.8219     0.0911     0.3575
A_0     C     0.0189     0.5731     0.6368
A_1     C     0.1919     0.0668     0.3365
A_3     C     0.5231     0.5059     0.9363
A_0     C     0.5135     0.3146     0.6793
A_3     C     0.4698     0.6804     0.8263
A_2     C     0.8308     0.5996     0.8301
A_3     C     0.3781     0.3716     0.5946
A_2     C     0.8773     0.4891     0.8803
A_1     C     0.6213     0.4414     0.0396
A_3     C     0.7592     0.9579     0.2735
A_1     C     0.9848     0.1712     0.4157
A_0     C     0.1353     0.1697     0.303
A_0     C     0.6938     0.3565     0.4953
A_3     C     0.5448     0.2498     0.2735
A_2     C     0.2073     0.6302     0.7358
A_0     C     0.5871     0.3096     0.1754
A_3     C     0.7919     0.1661     0.164
A_1     C     0.6596     0.7802     0.6126
A_3     C     0.8306     0.5921     0.7356
A_1     C     0.5582     0.3088     0.8026
A_1     C     0.1172     0.8935     0.0945
A_3     C     0.433     0.8459     0.4325
A_3     C     0.894     0.0275     0.0086
A_2     C     0.7554     0.7399     0.4764
A_2     C     0.6653     0.9983     0.8899
A_3     C     0.4485     0.0556     0.0647
A_2     C     0.5798     0.9108     0.6261
A_0     C     0.533     0.8138     0.0447
A_0     C     0.0001     0.8366     0.5834
A_1     C     0.8771     0.694     0.8348
A_0     C     0.3651     0.4943     0.8272
A_0     C     0.8718     0.2423     0.6924
A_3     C     0.3838     0.5198     0.6044
A_1     C     0.7738     0.4438     0.0374
A_0     C     0.9823     0.3529     0.9642
A_3     C     0.271     0.2031     0.2101
A_1     C     0.2469     0.3149     0.3567
A_0     C     0.3142     0.8906     0.4577
A_0     C     0.2493     0.2226     0.098
A_0     C     0.9651     0.0986     0.2771
A_3     C     0.0275     0.8869     0.8968
A_3     C     0.4041     0.9272     0.4837
A_3     C     0.704     0.3557     0.0938
A_2     C     0.7389     0.9771     0.3241
A_0     C     0.3038     0.8872     0.5325
A_1     C     0.3846     0.423     0.8854
A_2     C     0.8794     0.8953     0.2432
A_3     C     0.1069     0.2778     0.6737
A_2     C     0.6205     0.6912     0.8795
A_0     C     0.8145     0.2953     0.057
A_0     C     0.2575     0.1489     0.3757
A_1     C     0.4465     0.1869     0.381
A_3     C     0.414     0.6274     0.3889
A_2     C     0.6661     0.4514     0.3723
A_1     C     0.9483     0.3403     0.3627
A_0     C     0.4079     0.0824     0.1552
A_0     C     0.4809     0.2238     0.6033
A_2     C     0.3014     0.1957     0.8857
A_2     C     0.16     0.4884     0.7998
A_2     C     0.0076     0.3495     0.1587
A_0     C     0.5696     0.9185     0.986
A_3     C     0.797     0.8599     0.165
A_2     C     0.6712     0.4713     0.2064
A_1     C     0.4428     0.6586     0.8366
A_3     C     0.7125     0.4698     0.5488
A_3     C     0.6348     0.8382     0.3891
A_3     C     0.238     0.1084     0.6084
A_0     C     0.9211     0.7046     0.9533
A_3     C     0.9945     0.5462     0.2901
A_0     C     0.4106     0.3714     0.8016
A_3     C     0.7961     0.5909     0.0578
A_1     C     0.571     0.4345     0.405
A_1     C     0.0624     0.326     0.8195
A_3     C     0.134     0.8232     0.0546
A_0     C     0.2552     0.2836     0.0095
A_1     C     0.6655     0.7383     0.1108
A_1     C     0.2469     0.1183     0.6551
A_2     C     0.3802     0.783     0.6459
A_0     C     0.8309     0.3474     0.4663
A_2     C     0.2159     0.7931     0.4565
A_3     C     0.8973     0.3444     0.7568
A_2     C     0.9158     0.6792     0.4385
A_2     C     0.6322     0.6512     0.8061
A_0     C     0.7487     0.239     0.1667
A_2     C     0.6813     0.9325     0.143
A_2     C     0.1199     0.4882     0.7168
A_2     C     0.0707     0.3015     0.5714
A_0     C     0.1436     0.2727     0.1545
A_0     C     0.7311     0.3332     0.5177
A_1     C     0.3037     0.4788     0.1132
A_3     C     0.2708     0.9913     0.5154
A_3     C     0.1044     0.9403     0.8518
A_2     C     0.8705     0.6279     0.9298
A_0     C     0.2005     0.3371     0.5806
A_2     C     0.4975     0.3853     0.933
A_3     C     0.6738     0.0946     0.2762
A_2     C     0.3541     0.8546     0.1735
A_3     C     0.3146     0.6264     0.3207
A_1     C     0.1775     0.8634     0.3134
A_3     C     0.0258     0.6391     0.7841
A_3     C     0.3169     0.5499     0.5743
A_3     C     0.2631     0.0428     0.2632
A_2     C     0.5665     0.1701     0.6086
A_3     C     0.2173     0.6373     0.0875
A_2     C     0.0428     0.4357     0.3287
A_0     C     0.5727     0.9524     0.7935
A_0     C     0.3024     0.5742     0.8549
A_0     C     0.5228     0.8989     0.8997
A_0     C     0.2144     0.1747     0.2027
A_2     C     0.6354     0.387     0.3416
A_2     C     0.0381     0.9825     0.2932
A_2     C     0.1897     0.8997     0.505
A_2     C     0.6058     0.5847     0.7432
A_2     C     0.3558     0.9632     0.1334
A_1     C     0.5708     0.8914     0.041
A_3     C     0.0045     0.2035     0.5174
A_3     C     0.4452     0.8076     0.3767
A_2     C     0.7575     0.8236     0.614
A_2     C     0.378     0.0443     0.4491
A_2     C     0.3978     0.0206     0.9253
A_1     C     0.6152     0.3505     0.4831
A_1     C     0.8162     0.6203     0.3617
A_3     C     0.3461     0.5276     0.2708
A_0     C     0.6559     0.4092     0.0052
A_0     C     0.0898     0.1372     0.9755
A_1     C     0.4966     0.3872     0.2191
A_1     C     0.7901     0.3227     0.2502
A_0     C     0.4058     0.2429     0.3437
A_3     C     0.3517     0.6879     0.0251
A_0     C     0.879     0.6306     0.7943
A_3     C     0.6279     0.9115     0.5372
A_2     C     0.1522     0.2173     0.4175
A_2     C     0.1035     0.7642     0.3126
A_3     C     0.8329     0.6171     0.2242
A_0     C     0.3499     0.8048     0.6055
A_1     C     0.1403     0.5587     0.0447
A_1     C     0.8754     0.1916     0.3596
A_2     C     0.0967     0.8849     0.6252
A_0     C     0.7335     0.8095     0.6816
A_0     C     0.4105     0.5163     0.079
A_1     C     0.8492     0.8795     0.3218
A_0     C     0.9355     0.9841     0.0972
A_1     C     0.7298     0.8448     0.0487
A_0     C     0.0151     0.3357     0.6151
A_0     C     0.361     0.9426     0.3995
A_0     C     0.5228     0.3889     0.8742
A_0     C     0.8024     0.4336     0.5858
A_3     C     0.2471     0.1058     0.4965
A_1     C     0.413     0.4631     0.5923
A_3     C     0.4974     0.3107     0.2323
A_2     C     0.9617     0.2808     0.0888
A_0     C     0.6722     0.7037     0.4546
A_3     C     0.2225     0.6367     0.5461
A_3     C     0.8732     0.6783     0.5893
A_3     C     0.5887     0.2772     0.0894
A_1     C     0.5885     0.6363     0.672
A_3     C     0.9406     0.1852     0.642
A_2     C     0.7172     0.9405     0.0126
A_3     C     0.64     0.7638     0.676
A_0     C     0.3597     0.8981     0.3258
A_2     C     0.602     0.1222     0.6677
A_3     C     0.4188     0.7257     0.0661
A_1     C     0.4644     0.079     0.3309
A_0     C     0.6459     0.3016     0.2729
A_1     C     0.165     0.376     0.325
A_2     C     0.1957     0.0582     0.2887
A_1     C     0.8002     0.8822     0.0736
A_1     C     0.273     0.4351     0.8344
A_1     C     0.2479     0.0215     0.1507
A_2     C     0.8247     0.4559     0.4875
A_2     C     0.593     0.1246     0.1755
A_1     C     0.8118     0.1332     0.7438
A_2     C     0.9348     0.2723     0.7603
A_0     C     0.488     0.557     0.5461
A_2     C     0.8711     0.514     0.0405
A_0     C     0.117     0.8454     0.2918
A_3     C     0.9029     0.9923     0.0356
A_3     C     0.6879     0.0723     0.024
A_0     C     0.3965     0.7081     0.8299
A_1     C     0.6542     0.506     0.9849
A_2     C     0.2833     0.0472     0.0256
A_3     C     0.2549     0.3575     0.0815
A_2     C     0.876     0.4259     0.0628
A_2     C     0.1914     0.3952     0.6286
A_2     C     0.1037     0.7296     0.3897
A_1     C     0.7842     0.6     0.9504
A_0     C     0.4056     0.9556     0.105
A_3     C     0.3232     0.422     0.0283
A_0     C     0.8454     0.8448     0.752
A_1     C     0.8768     0.9079     0.6623
A_1     C     0.3397     0.1414     0.5329
A_1     C     0.2702     0.5025     0.6285
A_2     C     0.7611     0.8719     0.8867
A_0     C     0.8792     0.9107     0.4779
A_0     C     0.921     0.7621     0.7603
A_2     C     0.5607     0.7104     0.3993
A_1     C     0.2915     0.3682     0.1095
A_0     C     0.2185     0.5136     0.8622
A_3     C     0.3317     0.9569     0.7147
A_0     C     0.3592     0.2664     0.7498
A_2     C     0.4973     0.048     0.5198
A_3     C     0.31     0.5396     0.1747
A_0     C     0.0909     0.6685     0.0594
A_0     C     0.2348     0.9568     0.1433
A_3     C     0.3556     0.9525     0.4275
A_1     C     0.4807     0.2001     0.8291
A_2     C     0.3667     0.0097     0.2814
A_1     C     0.9691     0.5495     0.6891
A_3     C     0.4776     0.9913     0.354
A_2     C     0.3921     0.5342     0.8825
A_2     C     0.259     0.3441     0.5051
A_2     C     0.2985     0.5367     0.7387
A_3     C     0.6254     0.8545     0.6838
A_0     C     0.3835     0.2205     0.3017
A_0     C     0.7386     0.6102     0.7468
A_0     C     0.4707     0.9257     0.8992
A_0     C     0.8138     0.4837     0.354
A_0     C     0.7267     0.2607     0.6317
A_2     C     0.243     0.7001     0.8467
