MAT-12

loop_
_symmetry_equiv_pos_as_xyz
  x,y,z
_cell_length_a          44.1503
_cell_length_b          16.0977
_cell_length_c          29.743
_cell_angle_alpha       90.0000
_cell_angle_beta        90.0000
_cell_angle_gamma       90.0000
loop_
_atom_site_label
_atom_site_type_symbol
_atom_site_fract_x
_atom_site_fract_y
_atom_site_fract_z
A_3     C     0.4637     0.2947     0.2011
A_0     C     0.613     0.4099     0.818
A_1     C     0.4362     0.3105     0.2373
A_0     C     0.1777     0.7143     0.7323
A_0     C     0.9283     0.7081     0.0254
A_3     C     0.0205     0.8813     0.5713
A_0     C     0.357     0.6308     0.3871
A_0     C     0.6731     0.1753     0.5223
A_0     C     0.6893     0.0331     0.655
A_1     C     0.4901     0.2244     0.0808
A_1     C     0.3377     0.7928     0.1147
A_2     C     0.1363     0.8066     0.9386
A_3     C     0.6438     0.0938     0.7182
A_1     C     0.4127     0.134     0.5051
A_1     C     0.2926     0.7668     0.1103
A_1     C     0.4541     0.1213     0.9138
A_2     C     0.1768     0.8389     0.2526
A_3     C     0.5998     0.3255     0.1138
A_3     C     0.089     0.0839     0.2907
A_0     C     0.5922     0.0599     0.1269
A_1     C     0.7098     0.7705     0.9328
A_1     C     0.234     0.6805     0.76
A_2     C     0.8945     0.4216     0.9381
A_2     C     0.1948     0.0182     0.7707
A_0     C     0.1307     0.7988     0.8198
A_3     C     0.58     0.3537     0.7885
A_2     C     0.8421     0.3372     0.9103
A_1     C     0.7096     0.5484     0.9343
A_1     C     0.2654     0.1423     0.6892
A_2     C     0.9409     0.959     0.5795
A_2     C     0.9587     0.2927     0.6963
A_1     C     0.9184     0.8234     0.212
A_2     C     0.9216     0.9213     0.6734
A_3     C     0.0143     0.7787     0.4557
A_2     C     0.6661     0.0452     0.3253
A_0     C     0.7461     0.3625     0.6602
A_0     C     0.8709     0.1275     0.3266
A_1     C     0.7229     0.8348     0.6986
A_2     C     0.9901     0.2188     0.3351
A_2     C     0.8528     0.8484     0.9976
A_2     C     0.8308     0.4386     0.0951
A_1     C     0.2598     0.9543     0.0854
A_3     C     0.8168     0.0896     0.0531
A_1     C     0.4777     0.0833     0.6278
A_2     C     0.7128     0.628     0.8305
A_2     C     0.3433     0.7184     0.051
A_1     C     0.6041     0.3504     0.7988
A_0     C     0.3557     0.0589     0.1161
A_1     C     0.863     0.3596     0.2808
A_1     C     0.4721     0.4901     0.3389
A_3     C     0.7125     0.4696     0.6693
A_1     C     0.6754     0.3889     0.1832
A_3     C     0.9814     0.0606     0.6042
A_1     C     0.3015     0.6661     0.1888
A_1     C     0.6074     0.172     0.0086
A_1     C     0.9075     0.6207     0.8165
A_3     C     0.5632     0.5694     0.2696
A_3     C     0.045     0.2663     0.0692
A_0     C     0.4761     0.2748     0.1939
A_0     C     0.4073     0.8985     0.7185
A_0     C     0.0908     0.6935     0.0409
A_2     C     0.683     0.8223     0.0036
A_0     C     0.4356     0.7475     0.7655
A_0     C     0.4548     0.8713     0.8749
A_3     C     0.8076     0.6922     0.2749
A_0     C     0.6348     0.2915     0.3586
A_0     C     0.8144     0.4238     0.9295
A_1     C     0.9243     0.9701     0.2668
A_3     C     0.5993     0.1805     0.8224
A_0     C     0.4556     0.3933     0.2619
A_1     C     0.3501     0.7637     0.2007
A_3     C     0.7603     0.238     0.2087
A_0     C     0.2185     0.2517     0.9615
A_3     C     0.2165     0.2797     0.2571
A_0     C     0.3664     0.6473     0.2865
A_2     C     0.3789     0.8871     0.3624
A_0     C     0.1656     0.4914     0.8944
A_1     C     0.9069     0.0473     0.6688
A_2     C     0.5553     0.9351     0.781
A_1     C     0.6448     0.5729     0.5405
A_1     C     0.204     0.1076     0.5757
A_2     C     0.4787     0.8969     0.7532
A_2     C     0.691     0.5223     0.5784
A_2     C     0.6494     0.7874     0.4503
A_2     C     0.9665     0.7179     0.0849
A_1     C     0.4687     0.8811     0.871
A_1     C     0.9144     0.7755     0.4045
A_3     C     0.4147     0.1492     0.2618
A_1     C     0.3972     0.1384     0.631
A_1     C     0.1106     0.057     0.4952
A_0     C     0.8661     0.4885     0.9181
A_2     C     0.3251     0.7842     0.1026
A_3     C     0.5637     0.8249     0.8764
A_3     C     0.5094     0.7279     0.237
A_0     C     0.3471     0.5492     0.8201
A_3     C     0.7415     0.7434     0.3736
A_1     C     0.1127     0.2352     0.4933
A_1     C     0.8938     0.0383     0.0072
A_2     C     0.8593     0.6391     0.7626
A_2     C     0.7686     0.5376     0.14
A_2     C     0.3944     0.2611     0.3473
A_0     C     0.0272     0.738     0.5699
A_3     C     0.5805     0.52     0.29
A_0     C     0.0851     0.3359     0.7897
A_2     C     0.1185     0.847     0.33
A_3     C     0.4579     0.752     0.2063
A_2     C     0.8903     0.4295     0.8159
A_2     C     0.818     0.2288     0.8655
A_3     C     0.3906     0.4645     0.2415
A_1     C     0.9769     0.9322     0.3815
A_3     C     0.7464     0.218     0.4484
A_1     C     0.8742     0.1059     0.276
A_2     C     0.4579     0.4782     0.802
A_2     C     0.4295     0.3241     0.8843
A_2     C     0.8682     0.3407     0.6676
A_2     C     0.808     0.3204     0.8959
A_1     C     0.8792     0.4281     0.687
A_1     C     0.123     0.4223     0.484
A_1     C     0.5088     0.1924     0.3417
A_2     C     0.1039     0.9166     0.881
A_3     C     0.6777     0.2805     0.3059
A_0     C     0.3252     0.0092     0.7268
A_1     C     0.267     0.9991     0.1857
A_1     C     0.7866     0.1259     0.4609
A_1     C     0.5485     0.5289     0.0488
A_0     C     0.0053     0.3235     0.6654
A_1     C     0.7015     0.4715     0.6884
A_0     C     0.0142     0.4897     0.6801
A_1     C     0.1292     0.3938     0.6933
A_3     C     0.434     0.9468     0.6732
A_3     C     0.9541     0.5621     0.0671
A_0     C     0.7832     0.4072     0.973
A_2     C     0.9883     0.0524     0.2645
A_3     C     0.6358     0.6666     0.5532
A_1     C     0.2488     0.8146     0.915
A_3     C     0.0238     0.3887     0.5692
A_2     C     0.1979     0.8988     0.7548
A_3     C     0.9116     0.5563     0.3526
A_3     C     0.4918     0.2507     0.4076
A_1     C     0.4327     0.8178     0.4458
A_1     C     0.0504     0.4902     0.7467
A_2     C     0.1724     0.892     0.6412
A_2     C     0.6278     0.5848     0.3284
A_3     C     0.7728     0.9818     0.4026
A_3     C     0.5936     0.9809     0.6582
A_1     C     0.6069     0.3233     0.5419
A_2     C     0.627     0.9534     0.8873
A_0     C     0.4864     0.3187     0.55
A_0     C     0.1702     0.6467     0.6633
A_1     C     0.7568     0.2639     0.6951
A_0     C     0.429     0.2174     0.9757
A_2     C     0.7971     0.7679     0.6746
A_2     C     0.3326     0.3866     0.4159
A_0     C     0.5839     0.022     0.2907
A_1     C     0.6108     0.6932     0.5529
A_1     C     0.9051     0.3517     0.7312
A_1     C     0.0703     0.8198     0.5408
A_2     C     0.7033     0.0423     0.9869
A_0     C     0.4779     0.7395     0.8715
A_1     C     0.2936     0.8822     0.3214
A_0     C     0.2252     0.6278     0.2638
A_0     C     0.8249     0.7153     0.9102
A_3     C     0.9498     0.1689     0.3244
A_3     C     0.9537     0.0219     0.2515
A_2     C     0.7018     0.0372     0.4145
A_3     C     0.4817     0.2442     0.6229
A_1     C     0.437     0.6969     0.3314
A_2     C     0.7028     0.4943     0.5089
A_0     C     0.7431     0.4389     0.1752
A_0     C     0.0764     0.3928     0.2515
A_0     C     0.6791     0.9026     0.263
A_0     C     0.874     0.463     0.8182
A_0     C     0.307     0.9421     0.8203
A_2     C     0.5301     0.4707     0.8155
A_0     C     0.1342     0.1018     0.2467
A_1     C     0.39     0.9874     0.4393
A_3     C     0.1996     0.8115     0.4862
A_3     C     0.21     0.4558     0.8681
A_0     C     0.8134     0.9426     0.2395
A_2     C     0.6785     0.4771     0.4589
A_3     C     0.7157     0.303     0.4315
A_3     C     0.908     0.0344     0.4784
A_0     C     0.6316     0.1352     0.908
A_1     C     0.3916     0.4461     0.7214
A_2     C     0.4551     0.0247     0.5417
A_0     C     0.519     0.878     0.9954
A_1     C     0.542     0.1272     0.0418
A_2     C     0.5087     0.2551     0.4395
A_2     C     0.559     0.8255     0.4484
A_1     C     0.8023     0.0912     0.0623
A_2     C     0.9978     0.0018     0.8077
A_2     C     0.3146     0.9401     0.7482
A_1     C     0.8387     0.3986     0.9466
A_3     C     0.5508     0.6733     0.6183
A_1     C     0.111     0.2179     0.9202
A_0     C     0.1167     0.2405     0.8896
A_2     C     0.3817     0.3899     0.5492
A_1     C     0.7052     0.7996     0.7621
A_3     C     0.0847     0.3896     0.9306
A_0     C     0.3013     0.6117     0.7236
A_2     C     0.7919     0.5951     0.791
A_1     C     0.8852     0.2231     0.159
A_2     C     0.4194     0.9111     0.3643
A_2     C     0.5355     0.6732     0.1875
A_2     C     0.4114     0.9961     0.8006
A_2     C     0.5173     0.3657     0.507
A_0     C     0.1258     0.4929     0.4056
A_2     C     0.9173     0.7613     0.9192
A_0     C     0.7814     0.3573     0.868
A_0     C     0.4376     0.6566     0.8098
A_3     C     0.7831     0.358     0.6118
A_0     C     0.287     0.1256     0.2728
A_1     C     0.224     0.8667     0.4003
A_3     C     0.0255     0.1653     0.1458
A_3     C     0.4501     0.8474     0.9587
A_2     C     0.7058     0.7369     0.004
A_0     C     0.4215     0.3981     0.0957
A_0     C     0.6501     0.4434     0.7182
A_0     C     0.0737     0.4353     0.78
A_0     C     0.6214     0.2266     0.9711
A_3     C     0.8215     0.5242     0.3261
A_1     C     0.6908     0.6221     0.3319
A_0     C     0.8749     0.1324     0.0694
A_3     C     0.1952     0.0501     0.5436
A_3     C     0.0915     0.9035     0.5004
A_0     C     0.1555     0.046     0.1582
A_1     C     0.3863     0.1546     0.3809
A_1     C     0.2448     0.4456     0.8459
A_1     C     0.6001     0.9506     0.2205
A_1     C     0.2739     0.0169     0.3211
A_1     C     0.6487     0.633     0.6281
A_3     C     0.1997     0.7944     0.1138
A_3     C     0.084     0.9346     0.907
A_0     C     0.9606     0.4064     0.9765
A_2     C     0.3045     0.9971     0.9784
A_0     C     0.9231     0.7442     0.2305
A_1     C     0.3907     0.4816     0.5082
A_0     C     0.3844     0.7039     0.5008
A_1     C     0.6624     0.8979     0.7147
A_1     C     0.1051     0.7922     0.8255
A_0     C     0.6402     0.7359     0.531
A_0     C     0.6115     0.1454     0.2951
A_2     C     0.8587     0.2007     0.9694
A_0     C     0.454     0.1188     0.0389
A_1     C     0.7569     0.6045     0.9919
A_0     C     0.1439     0.9732     0.9083
A_3     C     0.1205     0.2053     0.8249
A_1     C     0.6413     0.9287     0.3074
A_3     C     0.1018     0.1975     0.0484
A_0     C     0.7367     0.1102     0.7684
A_2     C     0.1774     0.8473     0.0704
A_3     C     0.2606     0.226     0.7041
A_2     C     0.3735     0.969     0.2816
A_3     C     0.5589     0.7769     0.0271
A_0     C     0.9415     0.0909     0.2159
A_2     C     0.4482     0.2026     0.2138
A_0     C     0.0452     0.9823     0.9308
A_2     C     0.4271     0.0956     0.5715
A_2     C     0.7134     0.1822     0.8149
A_0     C     0.0585     0.0325     0.4884
A_0     C     0.7792     0.2345     0.8693
A_1     C     0.3469     0.8329     0.2913
A_1     C     0.9     0.1392     0.1868
A_2     C     0.7003     0.8547     0.8971
A_3     C     0.9259     0.0536     0.3378
A_0     C     0.3692     0.5713     0.54
A_3     C     0.1489     0.1611     0.2453
A_3     C     0.0388     0.6118     0.3216
A_2     C     0.2812     0.7276     0.4475
A_2     C     0.7952     0.8134     0.4837
A_0     C     0.7787     0.7319     0.9887
A_0     C     0.152     0.1424     0.7456
A_2     C     0.7978     0.0207     0.8682
A_0     C     0.033     0.0426     0.9942
A_3     C     0.3254     0.3891     0.4353
A_1     C     0.5292     0.3425     0.4228
A_1     C     0.1537     0.9464     0.3661
A_1     C     0.6644     0.9208     0.2628
A_0     C     0.8548     0.9789     0.8465
A_3     C     0.9773     0.7336     0.4265
A_0     C     0.0713     0.0622     0.6647
A_2     C     0.6988     0.2042     0.0286
A_1     C     0.5176     0.6582     0.517
A_2     C     0.1938     0.1792     0.0423
A_2     C     0.4491     0.7975     0.3707
A_3     C     0.8321     0.2541     0.352
A_3     C     0.9165     0.8665     0.1794
A_3     C     0.976     0.1333     0.2395
A_1     C     0.9146     0.0301     0.2853
A_0     C     0.315     0.1493     0.9921
A_2     C     0.1552     0.1218     0.3914
A_0     C     0.1899     0.906     0.4149
A_3     C     0.5417     0.8794     0.2457
A_0     C     0.2389     0.0218     0.9253
A_3     C     0.0406     0.1213     0.8443
A_2     C     0.0142     0.915     0.6903
A_1     C     0.4854     0.0561     0.2945
A_1     C     0.274     0.0117     0.4621
A_1     C     0.3093     0.2763     0.6013
A_3     C     0.0645     0.0648     0.5589
A_3     C     0.5157     0.0739     0.774
A_2     C     0.5645     0.6702     0.445
A_1     C     0.7852     0.882     0.9502
A_1     C     0.6078     0.1623     0.3291
A_2     C     0.5163     0.7199     0.1713
A_2     C     0.8392     0.9962     0.122
A_3     C     0.4668     0.5265     0.4617
A_3     C     0.7879     0.104     0.867
A_2     C     0.7054     0.161     0.713
A_1     C     0.496     0.7953     0.9011
A_2     C     0.2044     0.81     0.5214
A_0     C     0.2757     0.1833     0.3084
A_3     C     0.3275     0.8004     0.8747
A_2     C     0.4197     0.6713     0.9018
A_0     C     0.6713     0.0926     0.4083
A_2     C     0.7697     0.9545     0.9713
A_2     C     0.5914     0.3196     0.5049
A_2     C     0.9272     0.0929     0.5525
A_3     C     0.6495     0.9231     0.7438
A_1     C     0.1086     0.2541     0.5237
A_3     C     0.3463     0.1454     0.5812
A_2     C     0.9225     0.4448     0.0637
A_2     C     0.7877     0.5156     0.7168
A_1     C     0.1678     0.2665     0.0875
A_1     C     0.3828     0.3981     0.2264
A_1     C     0.5903     0.155     0.605
A_2     C     0.1324     0.661     0.0702
A_1     C     0.5888     0.9898     0.1135
A_0     C     0.211     0.7952     0.4203
A_3     C     0.4489     0.3214     0.7981
A_0     C     0.2472     0.4905     0.9662
A_2     C     0.1731     0.6675     0.9576
A_3     C     0.8897     0.6336     0.2869
A_1     C     0.9188     0.9672     0.043
A_3     C     0.8001     0.0875     0.0457
A_3     C     0.5392     0.4974     0.756
A_3     C     0.0276     0.2998     0.5093
A_2     C     0.9931     0.5014     0.3989
A_1     C     0.0913     0.5497     0.3705
A_1     C     0.8321     0.7119     0.6815
A_2     C     0.2489     0.0677     0.5064
A_2     C     0.4634     0.2262     0.8424
A_0     C     0.8564     0.8705     0.6861
A_1     C     0.4648     0.4978     0.8627
A_1     C     0.1702     0.2291     0.7132
A_1     C     0.0398     0.0211     0.7934
A_2     C     0.9705     0.6105     0.0901
A_0     C     0.3972     0.06     0.8262
A_3     C     0.5115     0.9601     0.5572
A_3     C     0.098     0.7776     0.0078
A_1     C     0.5897     0.2295     0.4004
A_0     C     0.4757     0.2175     0.5125
A_2     C     0.4996     0.6362     0.1205
A_1     C     0.8966     0.6135     0.7848
A_1     C     0.6434     0.6041     0.2739
A_1     C     0.5653     0.3833     0.6652
A_1     C     0.8342     0.7545     0.851
A_1     C     0.0361     0.9272     0.3431
A_1     C     0.8771     0.845     0.4762
A_2     C     0.1319     0.9855     0.4718
A_3     C     0.7672     0.2725     0.8513
A_3     C     0.0488     0.5704     0.874
A_2     C     0.0086     0.6701     0.4432
A_0     C     0.2744     0.0128     0.1297
A_1     C     0.1155     0.0199     0.9098
A_0     C     0.3196     0.3521     0.2686
A_2     C     0.2097     0.7204     0.3231
A_3     C     0.973     0.2864     0.9562
A_0     C     0.7607     0.2611     0.7088
A_0     C     0.4035     0.5662     0.8224
A_0     C     0.099     0.1735     0.1153
A_3     C     0.0647     0.0703     0.3509
A_1     C     0.7585     0.1815     0.2434
A_1     C     0.9157     0.1601     0.9518
A_2     C     0.7809     0.9781     0.487
A_1     C     0.4659     0.1795     0.3348
A_3     C     0.6922     0.5072     0.3592
A_1     C     0.8118     0.8303     0.8819
A_0     C     0.1938     0.0211     0.5342
A_0     C     0.9445     0.6813     0.5666
A_3     C     0.4385     0.6229     0.4491
A_0     C     0.2392     0.0064     0.117
A_0     C     0.5614     0.5481     0.6115
A_1     C     0.7228     0.2581     0.6845
A_2     C     0.5074     0.6528     0.6394
A_1     C     0.3968     0.9949     0.1931
A_2     C     0.0347     0.193     0.3322
A_0     C     0.652     0.6517     0.8771
A_3     C     0.9501     0.5202     0.0855
A_2     C     0.5207     0.8151     0.3806
A_1     C     0.3376     0.1402     0.8019
A_1     C     0.3022     0.647     0.0263
A_3     C     0.2453     0.4169     0.3853
A_3     C     0.4383     0.6596     0.8098
A_1     C     0.666     0.8678     0.7676
A_2     C     0.1795     0.0486     0.3746
A_3     C     0.7409     0.7656     0.4909
A_1     C     0.347     0.0293     0.0424
A_3     C     0.4313     0.8661     0.965
A_2     C     0.352     0.7567     0.6259
A_3     C     0.1094     0.8697     0.8279
A_2     C     0.1851     0.5558     0.8306
A_1     C     0.294     0.1359     0.4343
A_3     C     0.9571     0.3089     0.2941
A_2     C     0.5239     0.5881     0.1594
A_2     C     0.6465     0.0483     0.8837
A_3     C     0.2134     0.2726     0.7363
A_3     C     0.2429     0.4119     0.8839
A_1     C     0.427     0.9659     0.2627
A_0     C     0.0929     0.1382     0.8599
A_3     C     0.8818     0.8075     0.6628
A_1     C     0.1527     0.5382     0.3369
A_3     C     0.3454     0.005     0.0733
A_0     C     0.641     0.8802     0.0872
A_3     C     0.5024     0.8973     0.0422
A_2     C     0.547     0.888     0.5754
A_1     C     0.4869     0.3918     0.3759
A_0     C     0.5221     0.4149     0.406
A_0     C     0.0545     0.8968     0.1303
A_1     C     0.4798     0.4387     0.4317
A_3     C     0.6917     0.9556     0.0954
A_2     C     0.5669     0.8706     0.4864
A_1     C     0.5306     0.8743     0.712
A_3     C     0.9409     0.8352     0.7644
A_3     C     0.2103     0.3774     0.3614
A_3     C     0.6705     0.5579     0.1692
A_0     C     0.0725     0.7122     0.3187
A_2     C     0.9374     0.7211     0.8501
A_2     C     0.2714     0.814     0.4117
A_3     C     0.9907     0.1705     0.5678
A_2     C     0.9096     0.211     0.493
A_1     C     0.4976     0.9057     0.3952
A_3     C     0.4514     0.6201     0.1046
A_0     C     0.5083     0.4614     0.1041
A_3     C     0.0643     0.4673     0.0495
A_2     C     0.2229     0.7045     0.5831
A_3     C     0.0456     0.437     0.6949
A_3     C     0.1806     0.0734     0.6191
A_1     C     0.6826     0.7493     0.5186
A_0     C     0.4302     0.3899     0.2238
A_3     C     0.6684     0.9731     0.6609
A_0     C     0.786     0.7158     0.1385
A_0     C     0.6934     0.9726     0.6952
A_2     C     0.1227     0.7863     0.9932
A_3     C     0.5375     0.5922     0.857
A_2     C     0.7808     0.6152     0.1203
A_2     C     0.09     0.2691     0.9503
A_3     C     0.2723     0.7722     0.6745
A_3     C     0.4613     0.5435     0.9398
A_2     C     0.7305     0.5999     0.5966
A_1     C     0.6311     0.4092     0.4879
A_0     C     0.874     0.5717     0.4293
A_3     C     0.3589     0.9698     0.9846
A_1     C     0.109     0.4888     0.6002
A_1     C     0.3711     0.499     0.8082
A_2     C     0.3592     0.5527     0.7009
A_1     C     0.4042     0.0859     0.8112
A_3     C     0.9066     0.4272     0.6478
A_3     C     0.5896     0.9657     0.1033
A_2     C     0.7988     0.3663     0.0749
A_1     C     0.3811     0.9835     0.7557
A_3     C     0.2484     0.7931     0.5976
A_1     C     0.4793     0.7508     0.3687
A_0     C     0.8017     0.2951     0.2509
A_2     C     0.7946     0.6182     0.4924
A_2     C     0.1185     0.7402     0.075
A_3     C     0.2995     0.2906     0.9075
A_2     C     0.333     0.1766     0.9293
A_1     C     0.6213     0.1504     0.542
A_1     C     0.6311     0.1796     0.1087
A_0     C     0.0049     0.9504     0.0263
A_1     C     0.2628     0.8099     0.6206
A_2     C     0.7172     0.7448     0.4276
A_0     C     0.2539     0.1045     0.913
A_3     C     0.4062     0.9378     0.132
A_3     C     0.0267     0.646     0.4214
A_0     C     0.4071     0.7245     0.5878
A_2     C     0.925     0.793     0.0248
A_3     C     0.7128     0.368     0.6842
A_3     C     0.1448     0.5946     0.078
A_3     C     0.0438     0.3377     0.7667
A_1     C     0.939     0.9712     0.1684
A_1     C     0.8797     0.4953     0.1969
A_1     C     0.6636     0.9061     0.711
A_1     C     0.2857     0.3764     0.8478
A_1     C     0.1179     0.8624     0.1775
A_2     C     0.735     0.327     0.6142
A_0     C     0.4187     0.0976     0.9914
A_2     C     0.9634     0.3527     0.7637
A_2     C     0.2371     0.5969     0.5737
A_1     C     0.3472     0.3659     0.2197
A_3     C     0.5551     0.0344     0.6329
A_1     C     0.4315     0.7467     0.9789
A_3     C     0.692     0.4436     0.4658
A_0     C     0.0023     0.1936     0.2408
A_3     C     0.1264     0.1248     0.8577
A_2     C     0.7136     0.9536     0.5465
A_0     C     0.1993     0.2415     0.4734
A_3     C     0.8701     0.5872     0.7284
A_3     C     0.2674     0.113     0.1812
A_3     C     0.4275     0.8157     0.4842
A_2     C     0.9478     0.4803     0.9346
A_3     C     0.8352     0.7607     0.1113
A_0     C     0.0568     0.194     0.3578
A_3     C     0.6753     0.64     0.7488
A_1     C     0.9062     0.2474     0.7116
A_2     C     0.4266     0.9543     0.4017
A_2     C     0.7838     0.6422     0.9293
A_2     C     0.8476     0.9448     0.7895
A_3     C     0.3672     0.6205     0.4953
A_2     C     0.5761     0.8631     0.8233
A_3     C     0.101     0.5709     0.3905
A_0     C     0.0371     0.7674     0.374
A_3     C     0.1597     0.8413     0.1401
A_0     C     0.2431     0.2006     0.3548
A_0     C     0.7734     0.5204     0.5067
A_2     C     0.0931     0.0835     0.7444
A_1     C     0.9558     0.5674     0.2538
A_0     C     0.3776     0.5132     0.0348
A_1     C     0.0285     0.8557     0.1324
A_2     C     0.2408     0.5949     0.6144
A_3     C     0.794     0.3215     0.9458
A_3     C     0.2895     0.0311     0.5543
A_0     C     0.3876     0.5069     0.312
A_2     C     0.3589     0.0785     0.153
A_1     C     0.6417     0.6117     0.8274
A_3     C     0.7113     0.2536     0.5177
A_0     C     0.6517     0.5072     0.5818
A_2     C     0.6403     0.6552     0.8195
A_3     C     0.7976     0.4002     0.2453
A_2     C     0.8331     0.1024     0.9608
A_2     C     0.0749     0.4529     0.6165
A_0     C     0.709     0.9572     0.1707
A_0     C     0.9021     0.9835     0.7876
A_0     C     0.6631     0.4733     0.3229
A_3     C     0.1674     0.212     0.4419
A_1     C     0.2471     0.004     0.3712
A_3     C     0.6424     0.7948     0.9476
A_1     C     0.1049     0.943     0.8129
A_2     C     0.1368     0.3085     0.5442
A_3     C     0.7019     0.7124     0.958
A_1     C     0.0276     0.3816     0.3779
A_1     C     0.2757     0.4243     0.1885
A_1     C     0.5583     0.6262     0.1938
A_0     C     0.0289     0.1628     0.8802
A_0     C     0.5704     0.1458     0.8451
A_0     C     0.3655     0.4057     0.819
A_3     C     0.6867     0.3472     0.4788
A_2     C     0.2688     0.7551     0.7177
A_0     C     0.6203     0.1155     0.3983
A_3     C     0.2837     0.7351     0.8105
A_2     C     0.0133     0.1128     0.7307
A_0     C     0.7749     0.2893     0.1091
A_1     C     0.6662     0.8886     0.5073
A_1     C     0.2299     0.5607     0.535
A_1     C     0.8835     0.7537     0.6234
A_2     C     0.2169     0.3559     0.5205
A_2     C     0.5336     0.256     0.6569
A_1     C     0.646     0.2685     0.7991
A_3     C     0.5458     0.0466     0.896
A_0     C     0.6176     0.6889     0.6111
A_3     C     0.4723     0.2173     0.1265
A_2     C     0.9496     0.3815     0.1294
A_0     C     0.8707     0.1108     0.628
A_3     C     0.6878     0.8843     0.7215
A_0     C     0.0915     0.7704     0.0978
A_1     C     0.893     0.5938     0.0862
A_0     C     0.5178     0.8755     0.4823
A_0     C     0.7803     0.338     0.5261
A_3     C     0.726     0.2079     0.9073
A_3     C     0.1745     0.32     0.6497
A_0     C     0.276     0.9215     0.5005
A_0     C     0.2728     0.5894     0.552
A_2     C     0.501     0.344     0.7462
A_0     C     0.6919     0.2366     0.4571
A_2     C     0.1336     0.053     0.698
A_1     C     0.3878     0.6846     0.1733
A_3     C     0.2681     0.6326     0.5898
A_1     C     0.1549     0.1487     0.3333
A_3     C     0.1713     0.5201     0.29
A_2     C     0.9523     0.0747     0.7844
A_3     C     0.2926     0.1149     0.245
A_3     C     0.5764     0.9591     0.1644
A_1     C     0.1598     0.0131     0.1045
A_1     C     0.266     0.94     0.0396
A_3     C     0.6191     0.6586     0.897
A_0     C     0.8714     0.6915     0.8208
A_1     C     0.3058     0.238     0.4836
A_2     C     0.4456     0.8707     0.375
A_3     C     0.8268     0.3556     0.9605
A_2     C     0.4593     0.2944     0.8544
A_0     C     0.1458     0.2092     0.1341
A_2     C     0.54     0.0163     0.8015
A_3     C     0.5648     0.7599     0.0874
A_2     C     0.0142     0.5081     0.0203
A_0     C     0.5333     0.761     0.2411
A_3     C     0.0314     0.1065     0.1017
A_3     C     0.5537     0.4024     0.4856
A_0     C     0.8418     0.8053     0.1513
A_2     C     0.8275     0.6584     0.8922
A_1     C     0.3381     0.4681     0.9056
A_0     C     0.4288     0.9322     0.6728
A_3     C     0.1905     0.3889     0.932
A_0     C     0.0319     0.2586     0.4288
A_0     C     0.1691     0.0392     0.6496
A_0     C     0.0774     0.0282     0.3091
A_0     C     0.3588     0.1643     0.5763
A_1     C     0.1339     0.9788     0.6089
A_3     C     0.3854     0.9009     0.3607
A_2     C     0.3552     0.8601     0.2225
A_1     C     0.3253     0.1425     0.4652
A_0     C     0.6285     0.4234     0.3167
A_2     C     0.7037     0.3715     0.4243
A_1     C     0.4524     0.4764     0.6648
A_0     C     0.4133     0.7668     0.1966
A_1     C     0.5411     0.2742     0.5973
A_2     C     0.5852     0.5471     0.6199
A_3     C     0.9798     0.7601     0.0918
A_1     C     0.2483     0.8662     0.4695
A_0     C     0.6981     0.9239     0.1761
A_1     C     0.5096     0.8832     0.8513
A_0     C     0.9066     0.0604     0.2785
A_1     C     0.5123     0.9484     0.4643
A_1     C     0.0909     0.3428     0.3466
A_3     C     0.1904     0.2973     0.9914
A_1     C     0.8469     0.5193     0.9767
A_1     C     0.3715     0.8712     0.7434
A_0     C     0.4734     0.595     0.8283
A_2     C     0.765     0.0534     0.7463
A_0     C     0.6897     0.924     0.0265
A_2     C     0.5219     0.83     0.7843
A_0     C     0.9118     0.218     0.7528
A_3     C     0.5324     0.7338     0.9297
A_3     C     0.743     0.5002     0.2978
A_0     C     0.2831     0.7236     0.8507
A_0     C     0.827     0.1421     0.5723
A_0     C     0.1725     0.2834     0.5289
A_1     C     0.5444     0.9749     0.4685
A_2     C     0.2843     0.4868     0.724
A_2     C     0.7586     0.7324     0.563
A_2     C     0.5869     0.0632     0.0575
A_0     C     0.6539     0.9171     0.0702
A_2     C     0.7465     0.2447     0.3539
A_2     C     0.344     0.6663     0.764
A_2     C     0.8462     0.1278     0.0144
A_2     C     0.5362     0.5658     0.5375
A_0     C     0.481     0.0388     0.8531
A_1     C     0.8484     0.6076     0.0995
A_2     C     0.7813     0.2493     0.9877
A_3     C     0.362     0.0646     0.6657
A_3     C     0.888     0.6556     0.1537
A_3     C     0.8646     0.2649     0.9842
A_2     C     0.8935     0.8047     0.2134
A_3     C     0.2187     0.3934     0.1314
A_2     C     0.3114     0.5831     0.5095
A_2     C     0.8451     0.1482     0.5431
A_0     C     0.3172     0.2777     0.8786
A_2     C     0.0306     0.814     0.8637
A_0     C     0.2223     0.3527     0.5563
A_0     C     0.458     0.3476     0.5679
A_1     C     0.7158     0.6141     0.6955
A_2     C     0.5779     0.4364     0.561
A_3     C     0.0436     0.2297     0.1628
A_0     C     0.0134     0.2755     0.095
A_3     C     0.5425     0.135     0.5781
A_2     C     0.7124     0.4031     0.552
A_0     C     0.5323     0.7972     0.5243
A_1     C     0.7205     0.2045     0.2325
A_0     C     0.919     0.8376     0.4582
A_3     C     0.6045     0.2445     0.0033
A_1     C     0.861     0.2199     0.0838
A_3     C     0.2912     0.991     0.8377
A_0     C     0.5882     0.5498     0.3901
A_1     C     0.4456     0.4169     0.1015
A_2     C     0.9733     0.153     0.6758
A_1     C     0.4164     0.263     0.16
A_3     C     0.1074     0.2552     0.6069
A_2     C     0.5909     0.4465     0.8981
A_1     C     0.2364     0.774     0.7463
A_2     C     0.4815     0.0493     0.6816
A_0     C     0.7502     0.9968     0.7316
A_3     C     0.4234     0.696     0.7389
A_3     C     0.7543     0.5314     0.7992
A_0     C     0.6316     0.797     0.1724
A_2     C     0.8417     0.6727     0.909
A_1     C     0.5963     0.2391     0.7926
A_3     C     0.4255     0.7599     0.6027
A_0     C     0.3664     0.3601     0.5915
A_1     C     0.1452     0.0051     0.9182
A_1     C     0.3059     0.3781     0.6051
A_2     C     0.8512     0.4296     0.8113
A_0     C     0.374     0.771     0.1539
A_1     C     0.7841     0.2855     0.6447
A_3     C     0.0228     0.8742     0.698
A_3     C     0.8133     0.0054     0.9735
A_1     C     0.1399     0.5489     0.5187
A_1     C     0.0543     0.1489     0.0883
A_3     C     0.5414     0.2585     0.7115
A_3     C     0.2783     0.9531     0.2119
A_3     C     0.0961     0.6575     0.7018
A_3     C     0.8139     0.412     0.4734
A_0     C     0.6086     0.5477     0.3017
A_3     C     0.9695     0.3283     0.5582
A_0     C     0.3272     0.0694     0.7526
A_3     C     0.9009     0.1833     0.1702
A_1     C     0.6732     0.9672     0.6149
A_2     C     0.0319     0.0285     0.6808
A_1     C     0.3676     0.7569     0.5428
A_1     C     0.0124     0.51     0.9492
A_0     C     0.7147     0.9648     0.8857
A_2     C     0.8293     0.4772     0.8407
A_2     C     0.4357     0.9281     0.5497
A_1     C     0.0221     0.1547     0.4836
A_3     C     0.0936     0.3778     0.7561
A_1     C     0.9601     0.9137     0.5027
A_3     C     0.1733     0.3391     0.0054
A_1     C     0.298     0.191     0.8484
A_2     C     0.6904     0.4227     0.7808
A_2     C     0.9233     0.5855     0.9915
A_1     C     0.1004     0.1416     0.0081
A_2     C     0.1385     0.1104     0.5398
A_2     C     0.8236     0.4777     0.2627
A_3     C     0.251     0.4225     0.1398
A_1     C     0.5092     0.3829     0.206
A_0     C     0.425     0.8168     0.8903
A_1     C     0.5684     0.7917     0.2284
A_3     C     0.5863     0.9043     0.2662
A_2     C     0.8483     0.4231     0.3007
A_2     C     0.8984     0.3115     0.9746
A_0     C     0.73     0.612     0.431
A_0     C     0.288     0.8922     0.3403
A_3     C     0.9777     0.2093     0.1843
A_0     C     0.8978     0.9017     0.446
A_3     C     0.3772     0.3185     0.0259
A_2     C     0.6362     0.4875     0.3021
A_1     C     0.2997     0.8939     0.624
A_3     C     0.5416     0.1973     0.2413
A_0     C     0.5459     0.2616     0.3364
A_2     C     0.7319     0.5427     0.9073
A_3     C     0.2625     0.8284     0.1455
A_2     C     0.3329     0.8095     0.5804
A_1     C     0.3055     0.2378     0.7756
A_3     C     0.3768     0.7418     0.1036
A_3     C     0.2765     0.0022     0.8922
A_1     C     0.2041     0.3277     0.5687
A_0     C     0.4679     0.4376     0.7621
A_2     C     0.9048     0.9026     0.878
A_0     C     0.5749     0.8683     0.26
A_1     C     0.7204     0.175     0.4122
A_1     C     0.3294     0.4845     0.7055
A_2     C     0.1346     0.4295     0.834
A_0     C     0.4964     0.8837     0.3893
A_3     C     0.9419     0.5722     0.5143
A_0     C     0.6237     0.3481     0.861
A_3     C     0.4667     0.1508     0.1567
A_1     C     0.8659     0.5697     0.9611
A_3     C     0.701     0.4936     0.8721
A_0     C     0.538     0.0694     0.5505
A_0     C     0.197     0.6266     0.6165
A_0     C     0.0809     0.3262     0.9231
A_1     C     0.3554     0.5781     0.2146
A_1     C     0.9126     0.6341     0.2668
A_2     C     0.5183     0.3954     0.1053
A_3     C     0.2787     0.5821     0.0938
A_3     C     0.0924     0.7463     0.7685
A_1     C     0.0733     0.2919     0.3341
A_1     C     0.782     0.0714     0.0246
A_0     C     0.9832     0.0745     0.7202
A_3     C     0.6042     0.1446     0.9536
A_0     C     0.5719     0.3972     0.9096
A_0     C     0.1386     0.355     0.0058
A_2     C     0.542     0.3707     0.1136
A_1     C     0.5316     0.5728     0.5393
A_1     C     0.1566     0.9706     0.1001
A_1     C     0.4711     0.6324     0.3816
A_2     C     0.0285     0.0267     0.6488
A_1     C     0.0452     0.3568     0.2195
A_1     C     0.5979     0.6589     0.4661
A_1     C     0.2215     0.1905     0.3461
A_3     C     0.9904     0.7017     0.5157
A_2     C     0.4352     0.8739     0.3118
A_1     C     0.3436     0.9673     0.9955
A_1     C     0.5838     0.47     0.6961
A_1     C     0.3123     0.9244     0.6055
A_2     C     0.1018     0.9849     0.0591
A_2     C     0.6864     0.0753     0.8861
A_0     C     0.8446     0.0248     0.6343
A_3     C     0.65     0.3263     0.4746
A_2     C     0.6513     0.4456     0.1942
A_3     C     0.6897     0.8502     0.1005
A_1     C     0.7671     0.0056     0.1182
A_1     C     0.4137     0.7294     0.458
A_2     C     0.4033     0.8287     0.5908
A_3     C     0.7044     0.3653     0.3584
A_0     C     0.6297     0.7715     0.716
A_2     C     0.6134     0.7368     0.3297
A_2     C     0.1938     0.5491     0.2747
A_1     C     0.2523     0.1822     0.0864
A_3     C     0.5848     0.9965     0.9921
A_0     C     0.5681     0.022     0.5539
A_1     C     0.8427     0.7798     0.0236
A_1     C     0.9481     0.1244     0.3521
A_2     C     0.937     0.6378     0.8033
A_2     C     0.265     0.4723     0.5199
A_2     C     0.8125     0.2295     0.6429
A_3     C     0.6896     0.1967     0.1664
A_3     C     0.1968     0.2029     0.8763
A_2     C     0.1319     0.9375     0.3052
A_0     C     0.029     0.9554     0.7612
A_2     C     0.9073     0.4825     0.0437
A_3     C     0.0256     0.8497     0.3995
A_1     C     0.5465     0.0721     0.289
A_3     C     0.8989     0.3002     0.293
A_0     C     0.844     0.0539     0.9807
A_0     C     0.9879     0.4042     0.4915
A_3     C     0.322     0.0556     0.5197
A_1     C     0.5513     0.4333     0.9523
A_2     C     0.7863     0.2509     0.9047
A_0     C     0.6219     0.4531     0.2871
A_0     C     0.7452     0.621     0.2178
A_3     C     0.2678     0.4843     0.5382
A_1     C     0.5518     0.2874     0.9063
A_3     C     0.9037     0.2906     0.5294
A_0     C     0.1985     0.4883     0.7214
A_2     C     0.1192     0.3158     0.655
A_0     C     0.9397     0.4608     0.3995
A_1     C     0.8884     0.4051     0.8894
A_1     C     0.381     0.4854     0.7135
A_2     C     0.9296     0.3608     0.363
A_1     C     0.659     0.1715     0.4341
A_2     C     0.063     0.175     0.2271
A_3     C     0.4192     0.655     0.8303
A_2     C     0.5467     0.8374     0.7683
A_2     C     0.6777     0.3878     0.8021
A_2     C     0.7363     0.3393     0.4955
A_0     C     0.5241     0.4559     0.2159
A_3     C     0.7934     0.8147     0.8204
A_1     C     0.9065     0.1528     0.3181
A_2     C     0.4922     0.3681     0.9285
A_0     C     0.5833     0.6194     0.5596
A_0     C     0.7028     0.5464     0.9033
A_0     C     0.4746     0.2594     0.8204
A_1     C     0.3241     0.2933     0.4209
A_1     C     0.3562     0.304     0.5403
A_2     C     0.9587     0.2017     0.2231
A_1     C     0.9614     0.1551     0.9942
A_1     C     0.8806     0.1737     0.92
A_1     C     0.9246     0.4445     0.5084
A_3     C     0.3441     0.9458     0.605
A_2     C     0.2383     0.4206     0.2577
A_3     C     0.0233     0.4493     0.0619
A_3     C     0.8972     0.7326     0.7531
A_2     C     0.3305     0.0463     0.5223
A_0     C     0.2127     0.6948     0.9589
A_3     C     0.584     0.9684     0.7528
A_1     C     0.533     0.0812     0.48
A_0     C     0.4284     0.6665     0.3004
A_0     C     0.0729     0.1996     0.6682
A_0     C     0.6449     0.6882     0.9281
A_0     C     0.3614     0.6816     0.1654
A_3     C     0.1751     0.8147     0.297
A_2     C     0.5052     0.8912     0.225
A_1     C     0.0796     0.4272     0.1166
A_2     C     0.6222     0.6696     0.6254
A_3     C     0.7113     0.4034     0.3211
A_0     C     0.3358     0.5624     0.6226
A_0     C     0.7299     0.3464     0.9036
A_1     C     0.9292     0.1421     0.0237
A_1     C     0.5846     0.4793     0.8862
A_3     C     0.2483     0.7793     0.7527
A_1     C     0.8329     0.8393     0.6409
A_3     C     0.5409     0.4833     0.1395
A_0     C     0.8499     0.1522     0.6515
A_1     C     0.5379     0.8393     0.6196
A_0     C     0.3515     0.0482     0.0826
A_1     C     0.1091     0.283     0.4276
A_0     C     0.523     0.7688     0.7819
A_1     C     0.3232     0.1852     0.2888
A_3     C     0.8462     0.0533     0.761
A_2     C     0.5904     0.2177     0.4812
A_0     C     0.1872     0.4654     0.9597
A_3     C     0.1785     0.3685     0.5873
A_2     C     0.4106     0.9416     0.733
A_2     C     0.8484     0.6748     0.3065
A_2     C     0.0281     0.4422     0.9535
A_1     C     0.3967     0.7791     0.6268
A_1     C     0.5702     0.8408     0.8815
A_0     C     0.6144     0.4595     0.2929
A_0     C     0.3643     0.0059     0.7672
A_1     C     0.9611     0.6306     0.5033
A_2     C     0.3654     0.6849     0.589
A_0     C     0.28     0.3605     0.4206
A_3     C     0.3729     0.6768     0.4151
A_3     C     0.7932     0.6637     0.0048
A_3     C     0.2376     0.0524     0.8557
A_1     C     0.7367     0.0795     0.8735
A_1     C     0.7846     0.4887     0.1327
A_1     C     0.0849     0.9244     0.3658
A_2     C     0.6737     0.6984     0.9816
A_1     C     0.3257     0.3681     0.8546
A_3     C     0.2863     0.3044     0.5071
A_1     C     0.6444     0.2813     0.5133
A_2     C     0.6807     0.9498     0.017
A_3     C     0.6003     0.4624     0.3781
A_1     C     0.9003     0.1233     0.1689
A_2     C     0.0323     0.6471     0.6348
A_2     C     0.1704     0.8003     0.77
A_2     C     0.3049     0.7002     0.4852
A_2     C     0.5921     0.7946     0.153
A_1     C     0.2485     0.5351     0.3255
A_0     C     0.0562     0.4969     0.9392
A_0     C     0.6774     0.2976     0.3881
A_0     C     0.7077     0.0402     0.5926
A_2     C     0.4987     0.2894     0.8362
A_2     C     0.7337     0.3609     0.3803
A_0     C     0.2876     0.5384     0.0221
A_0     C     0.5259     0.5432     0.8354
A_2     C     0.9598     0.5834     0.768
A_2     C     0.3295     0.5113     0.4472
A_2     C     0.5416     0.5095     0.8515
A_1     C     0.1268     0.8994     0.3541
A_1     C     0.3528     0.5959     0.4756
A_1     C     0.2796     0.9328     0.6267
A_0     C     0.2076     0.7269     0.1083
A_2     C     0.5523     0.7218     0.5733
A_0     C     0.3243     0.9914     0.3035
A_2     C     0.7691     0.2177     0.6577
A_0     C     0.2032     0.0127     0.0095
A_2     C     0.6684     0.7219     0.608
A_1     C     0.0589     0.4234     0.604
A_2     C     0.8138     0.5217     0.6791
A_1     C     0.8177     0.6644     0.25
A_0     C     0.7     0.3528     0.4238
A_0     C     0.3812     0.5667     0.4056
A_3     C     0.167     0.1731     0.6002
A_1     C     0.3363     0.093     0.1602
A_3     C     0.868     0.835     0.3994
A_1     C     0.842     0.0912     0.8029
A_3     C     0.6818     0.4941     0.9473
A_0     C     0.9518     0.8785     0.5289
A_3     C     0.2776     0.7639     0.8573
A_0     C     0.618     0.1419     0.0508
A_3     C     0.4664     0.3465     0.1315
A_3     C     0.0345     0.9944     0.0054
A_1     C     0.7312     0.3691     0.4121
A_1     C     0.361     0.893     0.6973
A_1     C     0.5101     0.5561     0.6726
A_2     C     0.6515     0.3302     0.9024
A_3     C     0.0902     0.3952     0.8357
A_3     C     0.4242     0.6836     0.4047
A_3     C     0.3217     0.2875     0.6035
A_0     C     0.7175     0.2528     0.9579
A_3     C     0.6966     0.7834     0.8094
A_1     C     0.7761     0.0781     0.8981
A_3     C     0.4169     0.024     0.1633
A_0     C     0.9623     0.1113     0.2677
A_1     C     0.5937     0.3971     0.0079
A_3     C     0.9608     0.4286     0.0521
A_0     C     0.7754     0.9249     0.7572
A_0     C     0.9041     0.5543     0.4639
A_0     C     0.0471     0.2466     0.4011
A_3     C     0.0896     0.8082     0.742
A_0     C     0.7703     0.4408     0.7496
A_1     C     0.7292     0.3333     0.6885
A_1     C     0.062     0.2334     0.792
A_0     C     0.0608     0.5755     0.1924
A_1     C     0.3857     0.1394     0.1472
A_0     C     0.4323     0.602     0.3725
A_3     C     0.2538     0.304     0.3396
A_0     C     0.1553     0.0386     0.4228
A_3     C     0.2105     0.0727     0.7732
A_0     C     0.9332     0.4496     0.0774
A_2     C     0.0302     0.9333     0.0907
A_2     C     0.4384     0.9336     0.9596
A_2     C     0.177     0.2645     0.7717
A_3     C     0.1572     0.6116     0.3693
A_0     C     0.7178     0.0231     0.5169
A_1     C     0.3035     0.4128     0.8425
A_0     C     0.9509     0.1086     0.6253
A_1     C     0.907     0.1742     0.8367
A_2     C     0.1785     0.8719     0.1521
A_0     C     0.8798     0.7515     0.4559
A_2     C     0.5491     0.6994     0.0164
A_0     C     0.0454     0.8536     0.2688
A_1     C     0.9943     0.4864     0.4945
A_0     C     0.6889     0.9033     0.8552
A_0     C     0.6527     0.216     0.9126
A_1     C     0.6356     0.2306     0.2991
A_3     C     0.1016     0.1152     0.4594
A_2     C     0.3173     0.3486     0.2692
A_1     C     0.2377     0.6575     0.1362
A_3     C     0.4529     0.13     0.709
A_1     C     0.98     0.4637     0.0066
A_0     C     0.9619     0.5026     0.6513
A_2     C     0.292     0.2692     0.1506
A_0     C     0.38     0.9758     0.2672
A_0     C     0.239     0.4978     0.3037
A_0     C     0.5073     0.3106     0.8074
A_3     C     0.489     0.987     0.832
A_1     C     0.3812     0.4859     0.0172
A_1     C     0.5844     0.318     0.7906
A_2     C     0.0873     0.2004     0.6696
A_3     C     0.1918     0.6856     0.7131
A_3     C     0.8349     0.5326     0.3176
A_2     C     0.0076     0.1428     0.1796
A_3     C     0.7821     0.9503     0.5838
A_1     C     0.4559     0.513     0.8653
A_1     C     0.6199     0.1858     0.9199
A_2     C     0.2086     0.9754     0.63
A_0     C     0.7959     0.5874     0.7017
A_1     C     0.9341     0.4219     0.0854
A_2     C     0.5603     0.6513     0.0187
A_3     C     0.1652     0.1598     0.1847
A_2     C     0.2008     0.9634     0.9655
A_3     C     0.1494     0.9422     0.5376
A_3     C     0.5562     0.2948     0.1345
A_3     C     0.3571     0.6211     0.6651
A_3     C     0.6106     0.0916     0.5099
A_3     C     0.65     0.9898     0.4949
A_1     C     0.992     0.5205     0.1548
A_2     C     0.7303     0.0966     0.2607
A_3     C     0.9942     0.4971     0.7781
A_2     C     0.7166     0.0343     0.7673
A_1     C     0.1299     0.1595     0.361
A_3     C     0.2529     0.8275     0.1243
A_0     C     0.2291     0.0754     0.1133
A_3     C     0.5547     0.9525     0.9288
A_0     C     0.7805     0.8776     0.6922
A_3     C     0.51     0.5326     0.5049
A_2     C     0.533     0.7819     0.0581
A_3     C     0.2269     0.2196     0.6628
A_2     C     0.8284     0.8989     0.8498
A_2     C     0.8247     0.2285     0.9858
A_0     C     0.7912     0.3526     0.2663
A_1     C     0.4499     0.1795     0.8952
A_3     C     0.4692     0.2335     0.2411
A_2     C     0.9956     0.1476     0.6795
A_3     C     0.1166     0.0524     0.1383
A_2     C     0.0182     0.5182     0.6596
A_0     C     0.253     0.3126     0.6056
A_0     C     0.0405     0.1235     0.2036
A_0     C     0.8937     0.121     0.6688
A_2     C     0.7928     0.5583     0.9404
A_1     C     0.7748     0.3323     0.5142
A_1     C     0.369     0.3556     0.0678
A_1     C     0.9813     0.0187     0.2955
A_0     C     0.0886     0.7156     0.8139
A_0     C     0.0747     0.309     0.0733
A_3     C     0.5106     0.4355     0.7095
A_3     C     0.5013     0.6757     0.1416
A_3     C     0.6351     0.4488     0.4039
A_2     C     0.18     0.0194     0.1981
A_1     C     0.9104     0.3474     0.95
A_2     C     0.722     0.0164     0.7039
A_0     C     0.4949     0.3283     0.0839
A_3     C     0.7917     0.0603     0.2678
A_3     C     0.0048     0.4678     0.0143
A_3     C     0.1627     0.0194     0.2834
A_0     C     0.5907     0.0101     0.745
A_2     C     0.6545     0.3983     0.7369
A_3     C     0.0412     0.854     0.5821
A_1     C     0.1903     0.356     0.955
A_1     C     0.3803     0.1581     0.4347
A_0     C     0.2606     0.8342     0.5624
A_0     C     0.5705     0.3412     0.6254
A_2     C     0.6794     0.1866     0.8782
A_2     C     0.7312     0.4739     0.0003
A_2     C     0.4456     0.3924     0.0537
A_0     C     0.4141     0.7489     0.5587
A_2     C     0.6579     0.5585     0.9498
A_3     C     0.5977     0.7982     0.6653
A_2     C     0.6621     0.08     0.3397
A_0     C     0.454     0.7815     0.5795
A_3     C     0.0908     0.1081     0.5787
A_1     C     0.2247     0.7052     0.8858
A_3     C     0.4518     0.9198     0.861
A_0     C     0.7443     0.1854     0.2347
A_0     C     0.056     0.6946     0.0927
A_1     C     0.9157     0.3388     0.4933
A_2     C     0.8663     0.1073     0.6187
A_0     C     0.1451     0.8754     0.162
A_2     C     0.5551     0.5586     0.4668
A_1     C     0.0819     0.4187     0.8865
A_2     C     0.0874     0.461     0.4514
A_0     C     0.6792     0.1881     0.5296
A_1     C     0.7978     0.2269     0.9122
A_1     C     0.3742     0.6779     0.2824
A_1     C     0.428     0.6871     0.249
A_0     C     0.0669     0.2822     0.017
A_1     C     0.1658     0.4936     0.4493
A_0     C     0.3341     0.0006     0.2457
A_3     C     0.2398     0.3235     0.5731
A_2     C     0.4854     0.7285     0.175
A_3     C     0.7824     0.2791     0.3637
A_3     C     0.1163     0.5215     0.3543
A_1     C     0.8254     0.3481     0.7678
A_3     C     0.7629     0.7218     0.8529
A_1     C     0.9842     0.1053     0.0928
A_0     C     0.7925     0.5493     0.1238
A_0     C     0.0599     0.0792     0.3285
