MAT-42

loop_
_symmetry_equiv_pos_as_xyz
  x,y,z
_cell_length_a          40.4184
_cell_length_b          15.7481
_cell_length_c          22.4678
_cell_angle_alpha       90.0000
_cell_angle_beta        90.0000
_cell_angle_gamma       90.0000
loop_
_atom_site_label
_atom_site_type_symbol
_atom_site_fract_x
_atom_site_fract_y
_atom_site_fract_z
A_2     C     0.4599     0.8762     0.5829
A_2     C     0.2265     0.8139     0.072
A_3     C     0.182     0.5201     0.9801
A_0     C     0.9949     0.4677     0.4393
A_2     C     0.5485     0.4588     0.7978
A_1     C     0.0402     0.4931     0.0049
A_2     C     0.5528     0.6362     0.4071
A_0     C     0.1945     0.4458     0.4521
A_1     C     0.3337     0.7146     0.8216
A_0     C     0.9223     0.8284     0.8666
A_0     C     0.6082     0.0943     0.058
A_0     C     0.7621     0.1405     0.4071
A_0     C     0.3236     0.0791     0.2261
A_3     C     0.0398     0.3561     0.8982
A_3     C     0.8868     0.3394     0.7097
A_2     C     0.5258     0.9156     0.9787
A_2     C     0.036     0.0158     0.9655
A_1     C     0.9236     0.4985     0.419
A_2     C     0.2694     0.7859     0.2753
A_3     C     0.8301     0.4803     0.1017
A_2     C     0.9398     0.2765     0.4219
A_0     C     0.3787     0.0491     0.3242
A_2     C     0.1086     0.2371     0.8227
A_3     C     0.4479     0.2936     0.9689
A_0     C     0.1528     0.0391     0.5898
A_2     C     0.4273     0.1982     0.1879
A_2     C     0.2488     0.9917     0.8646
A_0     C     0.0283     0.6297     0.7319
A_1     C     0.8774     0.3875     0.5893
A_2     C     0.5067     0.2765     0.9254
A_3     C     0.7546     0.0609     0.4301
A_2     C     0.0213     0.4936     0.6735
A_2     C     0.9954     0.0666     0.7902
A_2     C     0.2147     0.1018     0.1586
A_2     C     0.7449     0.3031     0.779
A_3     C     0.0698     0.5991     0.4878
A_3     C     0.2453     0.7266     0.3012
A_3     C     0.1939     0.3749     0.1929
A_0     C     0.738     0.9657     0.0852
A_2     C     0.8101     0.6722     0.771
A_0     C     0.6792     0.6249     0.5062
A_0     C     0.9308     0.4022     0.6621
A_2     C     0.8547     0.0982     0.5418
A_0     C     0.1434     0.4408     0.9842
A_1     C     0.5209     0.1516     0.8172
A_0     C     0.7951     0.9906     0.5638
A_1     C     0.822     0.8644     0.019
A_1     C     0.385     0.251     0.7109
A_1     C     0.4325     0.4697     0.0886
A_3     C     0.0118     0.897     0.6584
A_3     C     0.1623     0.5906     0.9703
A_0     C     0.5064     0.4275     0.513
A_1     C     0.5562     0.0753     0.0906
A_2     C     0.6392     0.1542     0.0889
A_3     C     0.0211     0.6573     0.9283
A_3     C     0.4608     0.5952     0.7746
A_0     C     0.5065     0.5867     0.8944
A_3     C     0.9549     0.8121     0.194
A_0     C     0.8677     0.2017     0.595
A_1     C     0.7054     0.3436     0.6389
A_3     C     0.8585     0.4956     0.4333
A_0     C     0.5892     0.4444     0.8452
A_1     C     0.5293     0.8735     0.1121
A_1     C     0.2896     0.5211     0.8256
A_0     C     0.8112     0.3908     0.0908
A_3     C     0.9637     0.9916     0.3842
A_2     C     0.4761     0.4371     0.3713
A_2     C     0.096     0.9589     0.8897
A_2     C     0.7084     0.7834     0.3984
A_3     C     0.0964     0.2919     0.6534
A_2     C     0.558     0.4887     0.2
A_2     C     0.0259     0.7524     0.5158
A_1     C     0.8346     0.2692     0.7153
A_3     C     0.4501     0.5728     0.9246
A_2     C     0.5938     0.5398     0.9527
A_1     C     0.5731     0.3863     0.4559
A_1     C     0.1878     0.3847     0.9322
A_3     C     0.4729     0.3146     0.8589
A_3     C     0.1491     0.3237     0.9494
A_0     C     0.5599     0.675     0.0588
A_2     C     0.3367     0.1146     0.5004
A_1     C     0.1255     0.2325     0.5366
A_0     C     0.7307     0.5179     0.8299
A_3     C     0.8532     0.5641     0.2929
A_3     C     0.4576     0.0433     0.7554
A_1     C     0.5777     0.1415     0.1073
A_1     C     0.8294     0.0859     0.1224
A_2     C     0.1258     0.9037     0.749
A_0     C     0.2936     0.5716     0.4182
A_0     C     0.7258     0.7944     0.7901
A_3     C     0.9887     0.4171     0.9354
A_2     C     0.7408     0.2064     0.8902
A_1     C     0.8151     0.2887     0.3876
A_1     C     0.3337     0.898     0.5893
A_2     C     0.4657     0.3594     0.0291
A_2     C     0.6153     0.5623     0.7153
A_2     C     0.5463     0.7698     0.1219
A_0     C     0.8458     0.0895     0.9317
A_1     C     0.9326     0.9696     0.8712
A_1     C     0.6692     0.6174     0.3299
A_2     C     0.3851     0.4876     0.2874
A_2     C     0.9539     0.7258     0.1788
A_1     C     0.0845     0.3215     0.949
A_0     C     0.2417     0.4564     0.0215
A_1     C     0.0258     0.0416     0.6088
A_1     C     0.8222     0.6484     0.6455
A_3     C     0.2345     0.4445     0.6179
A_1     C     0.8673     0.8027     0.2246
A_1     C     0.6987     0.0329     0.2208
A_0     C     0.2281     0.9039     0.6446
A_1     C     0.8216     0.8003     0.7149
A_0     C     0.0037     0.8831     0.4022
A_0     C     0.8911     0.0053     0.0051
A_1     C     0.7658     0.9959     0.3379
A_0     C     0.5201     0.6524     0.1361
A_2     C     0.2888     0.2831     0.3731
A_2     C     0.1174     0.713     0.3254
A_1     C     0.4437     0.3424     0.2017
A_3     C     0.2575     0.0368     0.4105
A_1     C     0.5486     0.9724     0.3538
A_0     C     0.1439     0.5665     0.8632
A_3     C     0.1869     0.0017     0.52
A_3     C     0.8552     0.9925     0.9575
A_1     C     0.2447     0.4506     0.57
A_2     C     0.9926     0.881     0.5554
A_2     C     0.3406     0.5548     0.4854
A_3     C     0.598     0.2288     0.6856
A_0     C     0.8622     0.378     0.8594
A_1     C     0.6045     0.2614     0.947
A_2     C     0.9466     0.3728     0.5178
A_2     C     0.0429     0.3198     0.3056
A_1     C     0.3366     0.8655     0.0959
A_2     C     0.4054     0.0361     0.3482
A_2     C     0.8953     0.5688     0.3758
A_1     C     0.5548     0.0728     0.3953
A_3     C     0.7264     0.1643     0.4648
A_0     C     0.2207     0.3129     0.9446
A_3     C     0.5226     0.3772     0.3651
A_2     C     0.8417     0.2686     0.1477
A_1     C     0.828     0.2325     0.4046
A_3     C     0.4616     0.3163     0.7729
A_2     C     0.609     0.1865     0.4789
A_0     C     0.9782     0.8353     0.7043
A_3     C     0.0294     0.8529     0.8596
A_1     C     0.8672     0.5503     0.8546
A_1     C     0.1335     0.7351     0.3205
A_2     C     0.7426     0.166     0.9354
A_3     C     0.44     0.0616     0.5302
A_3     C     0.6821     0.1279     0.3194
A_0     C     0.6796     0.0677     0.8523
A_1     C     0.6935     0.4231     0.9117
A_2     C     0.3905     0.0297     0.2969
A_1     C     0.6345     0.0651     0.0488
A_1     C     0.4565     0.175     0.633
A_1     C     0.2512     0.0386     0.452
A_1     C     0.266     0.3296     0.1682
A_1     C     0.6641     0.4702     0.0163
A_1     C     0.5746     0.562     0.2754
A_1     C     0.6711     0.3745     0.7143
A_2     C     0.2596     0.1686     0.632
A_3     C     0.321     0.8961     0.9284
A_2     C     0.1874     0.2604     0.2594
A_2     C     0.8947     0.8942     0.1082
A_3     C     0.4474     0.0155     0.3125
A_3     C     0.3767     0.0751     0.0413
A_0     C     0.7193     0.8498     0.8931
A_0     C     0.2865     0.1807     0.4165
A_3     C     0.9543     0.7464     0.2407
A_1     C     0.3187     0.0099     0.9233
A_2     C     0.3927     0.3134     0.1658
A_1     C     0.2071     0.4401     0.5565
A_3     C     0.5053     0.8547     0.1216
A_1     C     0.2672     0.8947     0.1992
A_2     C     0.4925     0.1371     0.1907
A_0     C     0.3853     0.6608     0.8863
A_1     C     0.1677     0.9621     0.8718
A_2     C     0.5959     0.3569     0.4927
A_3     C     0.002     0.386     0.1756
A_0     C     0.2778     0.8418     0.2613
A_2     C     0.7227     0.9302     0.2
A_0     C     0.5014     0.1424     0.8291
A_3     C     0.4297     0.0692     0.902
A_3     C     0.0414     0.123     0.2598
A_2     C     0.2144     0.4105     0.9811
A_1     C     0.4998     0.5183     0.3322
A_0     C     0.3965     0.977     0.7925
A_3     C     0.4013     0.1244     0.2173
A_1     C     0.924     0.1891     0.0707
A_3     C     0.8393     0.2995     0.6401
A_0     C     0.5776     0.7339     0.5893
A_3     C     0.4103     0.397     0.5426
A_0     C     0.8057     0.8579     0.2174
A_3     C     0.5356     0.1221     0.7839
A_0     C     0.8859     0.9634     0.8358
A_3     C     0.5359     0.3956     0.208
A_2     C     0.2749     0.4813     0.0429
A_3     C     0.0021     0.9949     0.697
A_0     C     0.2385     0.0618     0.9707
A_1     C     0.2902     0.7683     0.8779
A_1     C     0.1428     0.2418     0.1261
A_0     C     0.9956     0.6943     0.2053
A_0     C     0.9008     0.2538     0.1443
A_2     C     0.6408     0.6104     0.8474
A_1     C     0.4752     0.9383     0.0856
A_3     C     0.3907     0.4609     0.0904
A_1     C     0.4007     0.962     0.2608
A_0     C     0.491     0.7596     0.5975
A_3     C     0.432     0.4935     0.3264
A_2     C     0.6501     0.3004     0.0486
A_1     C     0.8742     0.1822     0.2382
A_0     C     0.9272     0.8596     0.2194
A_3     C     0.7217     0.6544     0.9391
A_1     C     0.9059     0.0919     0.9429
A_1     C     0.3012     0.5624     0.7301
A_1     C     0.4795     0.693     0.2259
A_3     C     0.1511     0.689     0.1069
A_1     C     0.3041     0.264     0.8525
A_1     C     0.6186     0.7895     0.0872
A_2     C     0.7104     0.9106     0.0576
A_3     C     0.2277     0.8352     0.3463
A_3     C     0.8612     0.1916     0.1765
A_2     C     0.7121     0.6676     0.6046
A_0     C     0.0119     0.0854     0.4561
A_2     C     0.7799     0.9606     0.0422
A_0     C     0.1381     0.3662     0.4133
A_3     C     0.6692     0.4656     0.6544
A_3     C     0.4944     0.4372     0.8521
A_0     C     0.2174     0.2223     0.5923
A_1     C     0.3302     0.162     0.1238
A_2     C     0.0475     0.3369     0.7606
A_2     C     0.053     0.3678     0.2499
A_0     C     0.4602     0.9859     0.8051
A_2     C     0.6539     0.3347     0.1363
A_3     C     0.8653     0.6482     0.0197
A_1     C     0.3466     0.9037     0.9456
A_2     C     0.3094     0.7458     0.579
A_3     C     0.8416     0.9535     0.9267
A_1     C     0.29     0.5451     0.006
A_1     C     0.4828     0.1418     0.0021
A_1     C     0.8089     0.5508     0.4492
A_3     C     0.9578     0.1438     0.8627
A_1     C     0.9846     0.1389     0.4225
A_2     C     0.6104     0.3671     0.8775
A_1     C     0.3194     0.7094     0.4375
A_2     C     0.4485     0.7594     0.4805
A_2     C     0.3831     0.0619     0.7267
A_2     C     0.4259     0.0724     0.3929
A_0     C     0.5886     0.1569     0.797
A_1     C     0.0576     0.631     0.0491
A_3     C     0.7245     0.1617     0.9936
A_0     C     0.0554     0.7178     0.4829
A_3     C     0.4938     0.1316     0.5902
A_3     C     0.9997     0.0558     0.8434
A_3     C     0.2778     0.9843     0.4136
A_2     C     0.924     0.2151     0.0053
A_0     C     0.4683     0.9174     0.8607
A_3     C     0.0516     0.6702     0.0193
A_0     C     0.0531     0.3629     0.9707
A_2     C     0.6683     0.9894     0.6072
A_1     C     0.6739     0.8779     0.2332
A_1     C     0.2899     0.8948     0.5552
A_2     C     0.1812     0.3913     0.9239
A_2     C     0.3093     0.4865     0.883
A_3     C     0.2905     0.1264     0.2138
A_2     C     0.9653     0.5425     0.8175
A_3     C     0.1369     0.2009     0.6985
A_2     C     0.7747     0.9255     0.9552
A_0     C     0.4984     0.8566     0.3873
A_0     C     0.6914     0.1079     0.5322
A_2     C     0.4908     0.5582     0.7484
A_0     C     0.4916     0.4427     0.2754
A_2     C     0.9572     0.0619     0.8539
A_3     C     0.6509     0.9049     0.1702
A_3     C     0.3427     0.9694     0.2608
A_3     C     0.1654     0.3939     0.2205
A_0     C     0.9542     0.1386     0.6909
A_3     C     0.0401     0.2488     0.012
A_0     C     0.329     0.8972     0.6891
A_1     C     0.3262     0.6949     0.3827
A_2     C     0.0726     0.5341     0.8476
A_2     C     0.9038     0.6003     0.9233
A_3     C     0.5609     0.395     0.3799
A_3     C     0.4361     0.6144     0.8156
A_0     C     0.4714     0.4999     0.2593
A_2     C     0.6325     0.541     0.6703
A_3     C     0.0062     0.8744     0.7645
A_2     C     0.1176     0.2144     0.4054
A_0     C     0.9337     0.3562     0.9005
A_1     C     0.7475     0.5404     0.1753
A_0     C     0.1843     0.5858     0.4182
A_3     C     0.4746     0.6688     0.464
A_2     C     0.974     0.5152     0.8122
A_1     C     0.8537     0.3515     0.6674
A_0     C     0.6867     0.5406     0.1598
A_0     C     0.3016     0.7387     0.6989
A_1     C     0.8917     0.0298     0.1849
A_1     C     0.4769     0.4597     0.6346
A_2     C     0.0504     0.2704     0.2587
A_0     C     0.1555     0.3862     0.5205
A_0     C     0.0209     0.3238     0.7429
A_2     C     0.5602     0.3922     0.5241
A_3     C     0.3132     0.5769     0.6402
A_2     C     0.925     0.2783     0.1206
A_2     C     0.9922     0.3457     0.629
A_0     C     0.4971     0.5784     0.0466
A_3     C     0.1717     0.8627     0.3721
A_1     C     0.303     0.0816     0.1132
A_3     C     0.3392     0.5831     0.581
A_0     C     0.5115     0.8445     0.4814
A_1     C     0.0215     0.5515     0.629
A_2     C     0.0528     0.9734     0.9107
A_3     C     0.028     0.501     0.4568
A_3     C     0.0538     0.8446     0.0322
A_2     C     0.06     0.0888     0.5067
A_0     C     0.672     0.4261     0.6014
A_1     C     0.2407     0.8988     0.0443
A_2     C     0.5006     0.5805     0.4735
A_3     C     0.994     0.4081     0.1858
A_0     C     0.6639     0.6937     0.8972
A_1     C     0.838     0.2395     0.07
A_1     C     0.5551     0.4515     0.4131
A_2     C     0.3555     0.9136     0.6765
A_1     C     0.6134     0.7265     0.8003
A_2     C     0.0824     0.9471     0.7972
A_3     C     0.8383     0.6682     0.8344
A_0     C     0.5708     0.9682     0.5176
A_3     C     0.68     0.1153     0.2158
A_2     C     0.7246     0.0219     0.6595
A_1     C     0.232     0.0941     0.486
A_3     C     0.1965     0.2281     0.5888
A_1     C     0.3836     0.0764     0.4219
A_2     C     0.574     0.7225     0.4031
A_0     C     0.9752     0.4057     0.0969
A_2     C     0.5445     0.5283     0.9386
A_3     C     0.8771     0.8153     0.3653
A_1     C     0.4138     0.961     0.428
A_1     C     0.7688     0.8223     0.4871
A_2     C     0.1309     0.1241     0.297
A_0     C     0.9531     0.841     0.3652
A_3     C     0.4108     0.2753     0.6136
A_3     C     0.4217     0.3243     0.4186
A_2     C     0.848     0.8611     0.0222
A_1     C     0.4185     0.1306     0.6449
A_0     C     0.9415     0.8289     0.3198
A_1     C     0.0827     0.7078     0.73
A_2     C     0.0675     0.7258     0.2554
A_1     C     0.8067     0.4684     0.9185
A_3     C     0.9869     0.3596     0.3389
A_2     C     0.3519     0.1245     0.6253
A_3     C     0.8849     0.3929     0.4123
A_0     C     0.9027     0.1507     0.775
A_2     C     0.6424     0.793     0.363
A_3     C     0.4734     0.7419     0.8733
A_3     C     0.9919     0.0166     0.8648
A_3     C     0.043     0.4813     0.3476
A_1     C     0.8819     0.7274     0.5576
A_3     C     0.2415     0.1906     0.7312
A_0     C     0.3697     0.4348     0.7942
A_0     C     0.9021     0.6889     0.1838
A_0     C     0.319     0.5656     0.6346
A_1     C     0.5596     0.1137     0.2949
A_0     C     0.2287     0.3081     0.9135
A_1     C     0.2154     0.0701     0.6444
A_2     C     0.7236     0.3832     0.9152
A_0     C     0.1992     0.6985     0.7193
A_1     C     0.5081     0.8725     0.5105
A_0     C     0.7363     0.3804     0.0797
A_3     C     0.5292     0.2017     0.7437
A_1     C     0.6611     0.5747     0.4846
A_0     C     0.2778     0.9197     0.173
A_3     C     0.5048     0.1733     0.6857
A_1     C     0.8365     0.7367     0.109
A_3     C     0.7801     0.9702     0.9426
A_1     C     0.2065     0.5669     0.458
A_3     C     0.9834     0.6909     0.5676
A_0     C     0.4785     0.0285     0.7063
A_0     C     0.1758     0.6444     0.5935
A_1     C     0.0575     0.8506     0.9385
A_1     C     0.5952     0.7337     0.4487
A_0     C     0.4487     0.4121     0.873
A_2     C     0.8756     0.4719     0.3285
A_1     C     0.3964     0.5463     0.5286
A_1     C     0.8373     0.8614     0.2589
A_3     C     0.4107     0.2132     0.5791
A_1     C     0.4566     0.8347     0.4255
A_0     C     0.7766     0.4357     0.5697
A_3     C     0.7804     0.9918     0.2945
A_1     C     0.6811     0.2338     0.3421
A_2     C     0.1512     0.0822     0.0329
A_1     C     0.4167     0.3419     0.9351
A_1     C     0.2612     0.1575     0.6863
A_1     C     0.1634     0.417     0.2142
A_3     C     0.1065     0.5336     0.3106
A_3     C     0.9048     0.7858     0.8039
A_2     C     0.4869     0.7976     0.5295
A_0     C     0.1713     0.7479     0.8854
A_3     C     0.0538     0.7663     0.1095
A_3     C     0.1387     0.3421     0.0846
A_0     C     0.6395     0.1039     0.6768
A_2     C     0.7158     0.6588     0.1164
A_2     C     0.7689     0.4782     0.9684
A_0     C     0.9484     0.8358     0.9406
A_2     C     0.9901     0.054     0.7235
A_3     C     0.8079     0.1601     0.4918
A_1     C     0.2296     0.9577     0.8518
A_2     C     0.4289     0.4325     0.1381
A_3     C     0.0542     0.8918     0.7671
A_3     C     0.4786     0.3031     0.779
A_0     C     0.2923     0.9594     0.4551
A_3     C     0.871     0.3384     0.6618
A_3     C     0.3758     0.8216     0.9932
A_2     C     0.3236     0.6762     0.8212
A_0     C     0.3339     0.2299     0.8501
A_1     C     0.8559     0.6065     0.7366
A_3     C     0.5881     0.8273     0.2363
A_2     C     0.3995     0.8892     0.4113
A_3     C     0.787     0.1292     0.2594
A_2     C     0.7213     0.4321     0.0457
A_2     C     0.3871     0.8435     0.0305
A_3     C     0.9597     0.7068     0.4462
A_3     C     0.7518     0.474     0.2766
A_1     C     0.4669     0.5712     0.0904
A_3     C     0.2059     0.9387     0.6815
A_3     C     0.7657     0.6875     0.8264
A_1     C     0.7942     0.4283     0.7431
A_3     C     0.9772     0.0878     0.3524
A_1     C     0.2289     0.3486     0.715
A_0     C     0.2563     0.1598     0.8371
A_3     C     0.8446     0.7705     0.0326
A_2     C     0.6879     0.2222     0.5077
A_0     C     0.0798     0.7467     0.6083
A_3     C     0.9967     0.8389     0.051
A_0     C     0.8933     0.6988     0.8809
A_0     C     0.7543     0.9185     0.5029
A_2     C     0.8553     0.0322     0.1789
A_3     C     0.5223     0.3498     0.3188
A_2     C     0.5617     0.2319     0.4913
A_1     C     0.2924     0.4292     0.9119
A_0     C     0.1336     0.2466     0.3081
A_0     C     0.6845     0.7002     0.8761
A_3     C     0.3222     0.4837     0.139
A_1     C     0.3178     0.7704     0.2376
A_1     C     0.6959     0.2187     0.7341
A_0     C     0.083     0.7212     0.1981
A_1     C     0.811     0.2198     0.6237
A_1     C     0.3261     0.0479     0.7885
A_1     C     0.7383     0.1952     0.9707
A_3     C     0.1936     0.901     0.3902
A_1     C     0.7913     0.5398     0.8965
A_0     C     0.4279     0.3413     0.804
A_0     C     0.9591     0.735     0.7271
A_1     C     0.4327     0.666     0.7409
A_3     C     0.2026     0.8606     0.4976
A_3     C     0.637     0.4951     0.6292
A_0     C     0.5182     0.8099     0.0257
A_1     C     0.5068     0.9998     0.6097
A_2     C     0.4079     0.6419     0.9222
A_2     C     0.9656     0.9271     0.3154
A_1     C     0.0812     0.2472     0.9034
A_0     C     0.6891     0.9908     0.9554
A_2     C     0.7704     0.2498     0.1925
A_2     C     0.8499     0.4789     0.8523
A_2     C     0.8951     0.863     0.4417
A_2     C     0.9041     0.4158     0.0307
A_1     C     0.7463     0.6433     0.3413
A_0     C     0.6801     0.8155     0.0033
A_1     C     0.4705     0.3218     0.2267
A_0     C     0.9341     0.6747     0.0499
A_1     C     0.0286     0.5687     0.9091
A_1     C     0.6668     0.5951     0.8974
A_3     C     0.663     0.76     0.897
A_3     C     0.3591     0.9151     0.8045
A_3     C     0.0374     0.3044     0.2854
A_0     C     0.5507     0.0524     0.0044
A_2     C     0.0421     0.8894     0.3534
A_1     C     0.2876     0.8853     0.7475
A_2     C     0.6927     0.8268     0.6758
A_3     C     0.5572     0.3533     0.3692
A_0     C     0.6546     0.1554     0.9878
A_1     C     0.7449     0.2073     0.716
A_1     C     0.8338     0.8661     0.9152
A_3     C     0.5276     0.8468     0.0529
A_1     C     0.3379     0.0701     0.2405
A_1     C     0.8706     0.7925     0.4542
A_2     C     0.3204     0.9154     0.3733
A_2     C     0.74     0.4916     0.9152
A_2     C     0.8375     0.9925     0.8025
A_1     C     0.1431     0.5066     0.8337
A_3     C     0.0821     0.5904     0.6785
A_0     C     0.0245     0.6274     0.8407
A_0     C     0.8089     0.4697     0.17
A_3     C     0.9643     0.1467     0.5121
A_3     C     0.7883     0.3774     0.1149
A_3     C     0.1494     0.5321     0.6657
A_0     C     0.8019     0.0478     0.3684
A_3     C     0.9386     0.6471     0.2101
A_3     C     0.5075     0.0667     0.3103
A_2     C     0.5629     0.6731     0.0971
A_1     C     0.9634     0.1031     0.3678
A_3     C     0.1806     0.9131     0.4305
A_0     C     0.6376     0.2093     0.787
A_0     C     0.4283     0.9317     0.4541
A_3     C     0.4013     0.3369     0.1167
A_2     C     0.8732     0.4704     0.4681
A_2     C     0.1737     0.1228     0.1657
A_1     C     0.3768     0.6602     0.4622
A_0     C     0.7998     0.8636     0.4953
A_2     C     0.4485     0.5655     0.4867
A_1     C     0.7378     0.6545     0.2176
A_2     C     0.4058     0.4551     0.8867
A_0     C     0.8845     0.7395     0.9006
A_3     C     0.1326     0.6619     0.3927
A_3     C     0.0089     0.7989     0.7312
A_0     C     0.6224     0.7554     0.1774
A_2     C     0.5376     0.4423     0.909
A_1     C     0.5023     0.8345     0.1561
A_0     C     0.2358     0.9518     0.4501
A_2     C     0.6274     0.7394     0.1408
A_2     C     0.058     0.0275     0.4727
A_1     C     0.0751     0.6466     0.1005
A_2     C     0.7782     0.894     0.1236
A_2     C     0.2492     0.5713     0.1748
A_3     C     0.2639     0.6801     0.764
A_1     C     0.2674     0.492     0.6379
A_3     C     0.9577     0.9943     0.6353
A_1     C     0.962     0.4885     0.051
A_1     C     0.4365     0.3995     0.3841
A_2     C     0.1981     0.4529     0.7698
A_3     C     0.9069     0.381     0.269
A_0     C     0.8665     0.7225     0.0676
A_2     C     0.9098     0.6907     0.486
A_2     C     0.6696     0.1251     0.6178
A_2     C     0.6218     0.8244     0.6546
A_1     C     0.4942     0.2224     0.0752
A_0     C     0.1663     0.0569     0.1929
A_1     C     0.455     0.1782     0.8525
A_1     C     0.37     0.3497     0.143
A_3     C     0.9307     0.8713     0.2379
A_3     C     0.1018     0.4155     0.4143
A_2     C     0.79     0.0576     0.792
A_2     C     0.0744     0.6428     0.5739
A_2     C     0.5356     0.1286     0.4071
A_1     C     0.4306     0.6548     0.5328
A_2     C     0.6583     0.2298     0.0325
A_0     C     0.7858     0.8987     0.5804
A_2     C     0.3044     0.1546     0.9089
A_2     C     0.2614     0.7559     0.0659
A_0     C     0.8438     0.786     0.4245
A_3     C     0.3492     0.4779     0.1855
A_1     C     0.7582     0.5178     0.4552
A_2     C     0.5183     0.543     0.7899
A_0     C     0.5894     0.5632     0.5491
A_2     C     0.3654     0.7195     0.3688
A_1     C     0.9897     0.0306     0.793
A_1     C     0.2893     0.1151     0.5257
A_2     C     0.921     0.7885     0.8432
A_1     C     0.3264     0.62     0.7769
A_0     C     0.7725     0.0591     0.0232
A_2     C     0.7295     0.5478     0.7894
A_2     C     0.8323     0.025     0.4284
A_2     C     0.1232     0.3409     0.4461
A_2     C     0.9993     0.3247     0.3103
A_2     C     0.5702     0.4069     0.9627
A_3     C     0.4066     0.4719     0.4118
A_0     C     0.5024     0.5205     0.2003
A_2     C     0.3093     0.4893     0.8173
A_2     C     0.4883     0.1363     0.7456
A_2     C     0.2748     0.6534     0.6856
A_0     C     0.1306     0.2651     0.4457
A_3     C     0.1249     0.413     0.5855
A_0     C     0.1934     0.1256     0.3102
A_1     C     0.7881     0.6832     0.6434
A_3     C     0.16     0.749     0.7552
A_2     C     0.7025     0.5646     0.0618
A_3     C     0.2396     0.5005     0.5384
A_2     C     0.2737     0.5096     0.848
A_3     C     0.5033     0.5523     0.4201
A_2     C     0.8326     0.1696     0.7312
A_1     C     0.8999     0.4322     0.673
A_1     C     0.0187     0.7571     0.4649
A_2     C     0.9     0.9529     0.5325
A_0     C     0.1399     0.0516     0.4023
A_3     C     0.8855     0.1455     0.8087
A_1     C     0.6983     0.9702     0.7944
A_2     C     0.9337     0.7586     0.3891
A_2     C     0.8863     0.0139     0.9465
A_3     C     0.0478     0.5533     0.5276
A_1     C     0.8551     0.8301     0.9938
A_1     C     0.7029     0.8139     0.3919
A_3     C     0.115     0.1563     0.9424
A_3     C     0.2151     0.1106     0.8292
A_0     C     0.0291     0.0721     0.8822
A_3     C     0.4242     0.7536     0.7772
A_2     C     0.0551     0.8907     0.8429
A_3     C     0.4657     0.6311     0.1407
A_2     C     0.5353     0.1625     0.4114
A_0     C     0.1548     0.9977     0.9216
A_3     C     0.3434     0.576     0.7697
A_0     C     0.1793     0.7333     0.402
A_1     C     0.9883     0.4977     0.4872
A_1     C     0.8531     0.4878     0.6483
A_1     C     0.1036     0.9259     0.7481
A_0     C     0.7919     0.5334     0.1704
A_1     C     0.7851     0.5576     0.0087
A_0     C     0.1911     0.7674     0.52
A_3     C     0.317     0.5801     0.0571
A_0     C     0.6967     0.2555     0.0144
A_0     C     0.8527     0.8086     0.9024
A_2     C     0.5358     0.6213     0.241
A_1     C     0.4724     0.4808     0.1471
A_0     C     0.4608     0.1726     0.7547
A_0     C     0.9268     0.7645     0.2829
A_1     C     0.2623     0.4057     0.7308
A_0     C     0.7529     0.6787     0.5454
A_2     C     0.1051     0.7979     0.4934
A_1     C     0.3739     0.4011     0.6673
A_3     C     0.2071     0.6947     0.3283
A_1     C     0.4349     0.6414     0.1636
A_2     C     0.8964     0.1377     0.9293
A_3     C     0.4009     0.516     0.9918
A_1     C     0.507     0.0515     0.284
A_2     C     0.2393     0.7322     0.8637
A_2     C     0.8105     0.5146     0.4798
A_3     C     0.0857     0.0564     0.2577
A_1     C     0.6288     0.4237     0.3321
A_2     C     0.8505     0.7427     0.1806
A_0     C     0.9219     0.1553     0.7517
A_3     C     0.3759     0.4877     0.1023
A_0     C     0.5833     0.4708     0.7651
A_2     C     0.7472     0.9825     0.3071
A_3     C     0.2039     0.788     0.1973
A_1     C     0.1899     0.1134     0.496
A_0     C     0.1607     0.3848     0.6667
A_0     C     0.0541     0.5118     0.0553
A_2     C     0.0851     0.1633     0.4467
A_1     C     0.0489     0.2456     0.2055
A_3     C     0.9223     0.2887     0.2491
A_1     C     0.8994     0.4843     0.0598
A_3     C     0.8047     0.3271     0.3421
A_1     C     0.3494     0.361     0.3771
A_3     C     0.0326     0.4074     0.1506
A_0     C     0.7455     0.8202     0.1232
A_2     C     0.8433     0.7317     0.3044
A_2     C     0.2022     0.5825     0.3827
A_3     C     0.7105     0.9425     0.1717
A_3     C     0.7132     0.7137     0.6947
A_1     C     0.0307     0.9772     0.1558
A_2     C     0.6184     0.5793     0.8424
A_1     C     0.2167     0.8903     0.8073
A_3     C     0.0433     0.4959     0.1943
A_2     C     0.7998     0.5388     0.4811
A_1     C     0.5128     0.2297     0.6612
A_2     C     0.3523     0.5828     0.8186
A_0     C     0.0239     0.2872     0.1861
A_0     C     0.0709     0.272     0.8314
A_2     C     0.2097     0.8299     0.8103
A_0     C     0.1383     0.8787     0.7333
A_3     C     0.558     0.4365     0.5865
A_0     C     0.0345     0.9902     0.8817
A_3     C     0.1422     0.3377     0.7229
A_1     C     0.0683     0.0516     0.0867
A_1     C     0.0849     0.8348     0.2963
A_3     C     0.0071     0.6863     0.4308
A_0     C     0.1184     0.4482     0.6279
A_3     C     0.1988     0.3424     0.1218
A_0     C     0.7469     0.5483     0.0534
A_1     C     0.0407     0.4661     0.7197
A_1     C     0.8472     0.0945     0.6844
A_3     C     0.6753     0.1554     0.2827
A_0     C     0.1052     0.7434     0.6935
A_2     C     0.5004     0.8182     0.3661
A_0     C     0.8339     0.7082     0.6305
A_1     C     0.3325     0.3176     0.9732
A_2     C     0.1714     0.0247     0.8809
A_1     C     0.9208     0.0993     0.0458
A_0     C     0.1099     0.4455     0.8968
A_2     C     0.0871     0.1281     0.1605
A_1     C     0.8128     0.8849     0.6907
A_1     C     0.3295     0.0038     0.7938
A_3     C     0.3028     0.5982     0.3345
A_0     C     0.6429     0.8369     0.9724
A_2     C     0.5896     0.7702     0.3659
A_0     C     0.2766     0.5816     0.7577
A_1     C     0.0279     0.4767     0.4829
A_2     C     0.7126     0.9308     0.7282
A_3     C     0.7246     0.535     0.193
A_3     C     0.2607     0.242     0.8888
A_0     C     0.1359     0.7579     0.71
A_2     C     0.4802     0.5488     0.0781
A_0     C     0.7144     0.8279     0.3236
A_0     C     0.52     0.0197     0.537
A_1     C     0.3671     0.5988     0.751
A_1     C     0.618     0.5186     0.5067
A_2     C     0.0279     0.5557     0.5735
A_1     C     0.3413     0.1187     0.7206
A_3     C     0.7282     0.8765     0.8123
A_1     C     0.8668     0.1207     0.3247
A_3     C     0.2233     0.6874     0.1082
A_3     C     0.1476     0.5101     0.0408
A_2     C     0.8818     0.9062     0.9002
A_3     C     0.3639     0.4231     0.1715
A_2     C     0.9129     0.452     0.5552
A_1     C     0.315     0.296     0.565
A_2     C     0.2     0.6054     0.9235
A_2     C     0.2296     0.8147     0.5136
A_2     C     0.2429     0.5822     0.2444
A_1     C     0.551     0.8948     0.4793
A_3     C     0.0405     0.3758     0.5041
A_2     C     0.3757     0.7907     0.7546
A_2     C     0.7601     0.1549     0.1879
A_3     C     0.6719     0.5829     0.3098
A_2     C     0.5071     0.6151     0.4175
A_3     C     0.9738     0.0334     0.3251
A_0     C     0.1046     0.1184     0.1771
A_3     C     0.5239     0.677     0.638
A_0     C     0.4902     0.3459     0.1246
A_1     C     0.4202     0.139     0.9619
A_3     C     0.7373     0.5241     0.0716
A_1     C     0.2568     0.1528     0.3605
A_1     C     0.6034     0.9386     0.2324
A_3     C     0.0738     0.3431     0.3535
A_0     C     0.3816     0.8931     0.323
A_0     C     0.6456     0.9017     0.7731
A_2     C     0.1462     0.0096     0.2789
A_1     C     0.8634     0.9091     0.1026
A_3     C     0.1067     0.9675     0.1375
A_3     C     0.957     0.5605     0.7073
A_3     C     0.3179     0.1987     0.3457
A_3     C     0.494     0.6824     0.896
A_1     C     0.2876     0.9614     0.3291
A_0     C     0.8303     0.7621     0.1138
A_1     C     0.6841     0.6807     0.9243
A_2     C     0.119     0.8581     0.9166
A_1     C     0.9439     0.2211     0.8542
A_3     C     0.3088     0.47     0.1274
A_0     C     0.0162     0.7427     0.678
A_1     C     0.6246     0.1187     0.2452
A_3     C     0.9715     0.4679     0.7077
A_1     C     0.4367     0.6461     0.381
A_1     C     0.6432     0.7148     0.3135
A_3     C     0.4238     0.4469     0.5291
A_1     C     0.5809     0.699     0.0631
A_1     C     0.8197     0.9021     0.5622
A_2     C     0.4303     0.1369     0.0215
A_2     C     0.465     0.9284     0.3656
A_0     C     0.3451     0.9578     0.3412
A_1     C     0.416     0.8334     0.4817
A_2     C     0.4065     0.5758     0.1053
A_3     C     0.5239     0.9026     0.5125
A_1     C     0.956     0.5165     0.0607
A_1     C     0.9756     0.3215     0.0664
A_1     C     0.8473     0.8412     0.6892
A_1     C     0.9156     0.1925     0.9195
A_0     C     0.5775     0.5026     0.262
A_2     C     0.2063     0.3046     0.8382
A_1     C     0.4878     0.7729     0.5936
A_0     C     0.8986     0.948     0.6476
A_3     C     0.693     0.633     0.9118
A_0     C     0.8213     0.9628     0.7765
A_1     C     0.5859     0.6887     0.8046
A_2     C     0.8849     0.0205     0.766
A_2     C     0.1285     0.1924     0.6552
A_2     C     0.3942     0.6544     0.9713
A_1     C     0.3882     0.7544     0.417
A_3     C     0.3186     0.509     0.6989
A_3     C     0.8895     0.5313     0.1974
A_1     C     0.6004     0.8233     0.8205
A_1     C     0.8865     0.0944     0.5274
A_0     C     0.751     0.722     0.5943
A_3     C     0.1418     0.1099     0.9919
A_0     C     0.4484     0.7407     0.5438
A_0     C     0.0298     0.7128     0.1222
A_1     C     0.7965     0.0906     0.3797
A_0     C     0.1071     0.4597     0.0377
A_3     C     0.196     0.2307     0.355
A_3     C     0.8429     0.7604     0.0288
A_0     C     0.3017     0.2928     0.5545
A_2     C     0.9924     0.886     0.8177
A_2     C     0.2221     0.2585     0.3925
A_1     C     0.4593     0.9089     0.2042
A_1     C     0.4104     0.7534     0.3993
A_0     C     0.9077     0.5103     0.5402
A_2     C     0.7801     0.8578     0.994
A_3     C     0.406     0.2982     0.2551
A_3     C     0.5795     0.4252     0.8129
A_1     C     0.0918     0.49     0.661
A_2     C     0.0044     0.7312     0.0089
A_3     C     0.2401     0.6196     0.2363
A_0     C     0.1714     0.4207     0.8756
A_3     C     0.0695     0.7723     0.3765
A_0     C     0.8111     0.5549     0.8961
A_0     C     0.7102     0.0081     0.707
A_3     C     0.575     0.1535     0.8882
A_3     C     0.3249     0.9409     0.7832
A_3     C     0.5984     0.3421     0.7028
A_1     C     0.8515     0.1927     0.7743
A_2     C     0.6613     0.6559     0.3266
A_3     C     0.0363     0.497     0.0301
A_0     C     0.1351     0.8583     0.1225
A_1     C     0.2035     0.4142     0.3922
A_3     C     0.381     0.8294     0.8088
A_0     C     0.2     0.8272     0.6309
A_3     C     0.1797     0.0983     0.433
A_0     C     0.9838     0.1174     0.4113
A_3     C     0.6622     0.5544     0.7439
A_0     C     0.7715     0.005     0.2249
A_1     C     0.8751     0.7999     0.4199
A_3     C     0.2091     0.6868     0.644
A_0     C     0.3156     0.003     0.0625
A_2     C     0.6748     0.1723     0.1173
A_0     C     0.3579     0.941     0.4285
A_1     C     0.465     0.9355     0.8947
A_0     C     0.5077     0.8106     0.6811
A_1     C     0.7706     0.3962     0.3229
A_0     C     0.5281     0.8643     0.4848
A_1     C     0.9681     0.884     0.2648
A_2     C     0.6146     0.3598     0.0516
A_3     C     0.574     0.454     0.4499
A_0     C     0.1437     0.298     0.7066
A_1     C     0.0646     0.6608     0.8872
A_1     C     0.9401     0.9304     0.0439
A_3     C     0.4411     0.3106     0.2774
A_1     C     0.5489     0.5723     0.2879
A_3     C     0.0848     0.9656     0.9917
A_3     C     0.1931     0.9418     0.382
A_1     C     0.3195     0.4348     0.3009
A_3     C     0.8984     0.5138     0.751
A_1     C     0.3368     0.1294     0.5258
A_0     C     0.0371     0.2839     0.2081
A_0     C     0.7664     0.9743     0.2829
A_0     C     0.2087     0.2573     0.6492
A_1     C     0.9022     0.4551     0.1893
A_0     C     0.6591     0.2179     0.8597
A_2     C     0.0111     0.7329     0.017
A_1     C     0.5614     0.9566     0.773
A_0     C     0.5218     0.5134     0.7613
A_2     C     0.5866     0.4991     0.8315
A_3     C     0.578     0.7158     0.0161
A_3     C     0.9827     0.3657     0.4165
A_0     C     0.9149     0.2087     0.6092
A_2     C     0.3792     0.5673     0.1562
A_0     C     0.6086     0.5089     0.1567
A_0     C     0.5312     0.7001     0.6583
A_1     C     0.4973     0.6042     0.6479
A_1     C     0.3311     0.0303     0.8895
A_0     C     0.8563     0.4041     0.4716
A_3     C     0.5018     0.0605     0.3496
A_0     C     0.6883     0.3626     0.6404
A_2     C     0.2993     0.6877     0.1127
A_1     C     0.8628     0.3658     0.5535
A_1     C     0.0065     0.0115     0.8106
A_1     C     0.8095     0.4502     0.1675
A_3     C     0.4564     0.0717     0.1749
A_2     C     0.2962     0.9445     0.2478
A_3     C     0.6274     0.2319     0.174
A_2     C     0.3175     0.3408     0.0058
A_0     C     0.9309     0.2317     0.1358
A_0     C     0.1827     0.1417     0.5479
A_2     C     0.93     0.8885     0.9997
A_2     C     0.6342     0.0491     0.1292
A_1     C     0.7913     0.1537     0.6056
A_1     C     0.5541     0.5721     0.8326
A_0     C     0.5285     0.2192     0.6861
A_1     C     0.3441     0.4626     0.0817
A_2     C     0.448     0.7054     0.0249
A_2     C     0.6397     0.7318     0.9657
A_1     C     0.322     0.1866     0.9477
A_3     C     0.5515     0.557     0.1706
A_2     C     0.6436     0.3386     0.726
A_1     C     0.8189     0.2001     0.0623
A_2     C     0.6141     0.7882     0.1938
A_0     C     0.6743     0.4853     0.6737
A_1     C     0.2947     0.1843     0.7416
A_3     C     0.9582     0.3393     0.1003
A_0     C     0.7242     0.0278     0.6352
A_1     C     0.6217     0.2172     0.3545
A_1     C     0.5655     0.6588     0.7838
A_3     C     0.2814     0.9733     0.3727
A_0     C     0.7034     0.0127     0.8957
A_3     C     0.3428     0.9644     0.677
A_3     C     0.9074     0.2439     0.2251
A_1     C     0.3046     0.5018     0.9379
A_3     C     0.7189     0.1125     0.5783
A_1     C     0.452     0.6027     0.4285
A_0     C     0.2041     0.9509     0.7127
A_3     C     0.9263     0.0375     0.3582
A_0     C     0.9232     0.5046     0.4998
A_3     C     0.1471     0.4509     0.3156
A_2     C     0.4817     0.4723     0.1196
A_0     C     0.0099     0.9048     0.7004
A_0     C     0.8429     0.0134     0.7228
A_3     C     0.4524     0.0849     0.1479
A_1     C     0.0009     0.2999     0.7937
A_2     C     0.1318     0.1498     0.0564
A_2     C     0.0207     0.8206     0.0421
A_3     C     0.5539     0.0219     0.6292
A_0     C     0.7576     0.8805     0.0721
A_3     C     0.5343     0.3103     0.4057
A_1     C     0.3888     0.7239     0.329
A_2     C     0.0716     0.5211     0.2121
A_0     C     0.237     0.5875     0.2052
A_2     C     0.0929     0.3944     0.5273
A_2     C     0.8981     0.8271     0.5345
A_1     C     0.6708     0.5736     0.1775
A_0     C     0.2292     0.7075     0.0289
A_1     C     0.964     0.0567     0.5426
A_2     C     0.7874     0.7582     0.5361
A_1     C     0.2402     0.8801     0.9355
A_3     C     0.5862     0.7065     0.0173
A_2     C     0.454     0.7162     0.6167
A_2     C     0.3132     0.743     0.4101
A_0     C     0.2402     0.1047     0.0253
A_3     C     0.1936     0.893     0.7215
A_1     C     0.8964     0.2575     0.5728
A_2     C     0.2355     0.6006     0.191
A_3     C     0.0431     0.3145     0.1437
A_3     C     0.2703     0.2419     0.2669
A_0     C     0.7773     0.9967     0.686
A_3     C     0.4685     0.4811     0.8557
A_1     C     0.4297     0.9716     0.3728
A_0     C     0.4838     0.1517     0.9014
A_0     C     0.7887     0.4801     0.2138
A_2     C     0.9917     0.676     0.4358
A_1     C     0.2353     0.5056     0.2973
A_3     C     0.6975     0.2849     0.5179
A_3     C     0.2173     0.5605     0.6678
A_3     C     0.2913     0.9673     0.725
A_2     C     0.5375     0.2978     0.3649
A_1     C     0.6148     0.7496     0.0878
A_3     C     0.8368     0.6525     0.6033
A_3     C     0.1513     0.4546     0.4521
A_0     C     0.5517     0.2463     0.6756
A_2     C     0.557     0.3528     0.9023
A_0     C     0.0054     0.6354     0.0243
A_3     C     0.0254     0.5054     0.0983
A_2     C     0.4669     0.1149     0.1692
A_1     C     0.6519     0.1397     0.0089
A_3     C     0.3681     0.2731     0.088
A_3     C     0.8406     0.3037     0.0701
A_2     C     0.5454     0.4404     0.2382
A_0     C     0.5926     0.0195     0.8163
A_2     C     0.6184     0.0993     0.8859
A_3     C     0.7691     0.6025     0.5096
A_1     C     0.265     0.7086     0.2725
A_0     C     0.8291     0.5029     0.9367
A_1     C     0.0389     0.9046     0.642
A_1     C     0.9788     0.2112     0.0621
A_2     C     0.3265     0.9345     0.4981
A_1     C     0.8705     0.3302     0.3525
A_0     C     0.7446     0.142     0.2481
A_2     C     0.1841     0.2566     0.032
A_3     C     0.2701     0.6555     0.4648
A_3     C     0.441     0.7483     0.7508
A_0     C     0.3094     0.9632     0.3064
A_0     C     0.9454     0.8551     0.1661
A_0     C     0.9499     0.3523     0.613
A_1     C     0.1133     0.1617     0.2461
A_3     C     0.0219     0.9265     0.9726
A_0     C     0.6621     0.6467     0.9108
A_1     C     0.5886     0.3667     0.917
A_1     C     0.9155     0.8381     0.7266
A_3     C     0.2051     0.9436     0.3737
A_2     C     0.0497     0.8113     0.3112
A_1     C     0.7706     0.2234     0.0157
A_0     C     0.7929     0.1677     0.5334
A_3     C     0.795     0.8059     0.4233
A_0     C     0.8699     0.4795     0.8123
A_3     C     0.6456     0.5577     0.1344
A_3     C     0.1677     0.1232     0.0496
A_2     C     0.9174     0.5106     0.5756
A_3     C     0.3781     0.6611     0.3569
A_0     C     0.0362     0.6291     0.3162
A_2     C     0.9685     0.443     0.7617
A_1     C     0.2816     0.8916     0.6919
A_3     C     0.3552     0.6971     0.4892
A_1     C     0.8123     0.1766     0.3832
A_1     C     0.3802     0.8947     0.9216
A_1     C     0.9652     0.4622     0.0906
A_2     C     0.3194     0.9085     0.6078
A_0     C     0.8016     0.8419     0.4579
A_0     C     0.6931     0.0277     0.9692
A_1     C     0.2444     0.0573     0.0054
A_0     C     0.9286     0.6364     0.6077
A_1     C     0.5905     0.8997     0.4943
A_3     C     0.0381     0.2898     0.2627
A_2     C     0.4124     0.5657     0.9088
A_1     C     0.8622     0.8319     0.6613
A_0     C     0.8037     0.5167     0.6824
A_1     C     0.3068     0.6022     0.5802
A_0     C     0.0619     0.4819     0.4013
A_3     C     0.993     0.9698     0.0876
A_0     C     0.2259     0.5265     0.9631
A_1     C     0.5162     0.2956     0.8139
A_3     C     0.4553     0.487     0.7945
A_3     C     0.46     0.3243     0.9086
A_2     C     0.0212     0.459     0.2921
A_0     C     0.5403     0.202     0.0752
A_0     C     0.921     0.9527     0.9477
A_0     C     0.1866     0.9756     0.4871
A_1     C     0.2369     0.04     0.9938
