MAT-38

loop_
_symmetry_equiv_pos_as_xyz
  x,y,z
_cell_length_a          29.9684
_cell_length_b          20.8779
_cell_length_c          38.1194
_cell_angle_alpha       90.0000
_cell_angle_beta        90.0000
_cell_angle_gamma       90.0000
loop_
_atom_site_label
_atom_site_type_symbol
_atom_site_fract_x
_atom_site_fract_y
_atom_site_fract_z
A_2     C     0.3021     0.8731     0.344
A_3     C     0.1504     0.9372     0.6208
A_0     C     0.4262     0.5615     0.6016
A_3     C     0.3383     0.698     0.5027
A_2     C     0.7976     0.5012     0.5338
A_1     C     0.8643     0.5643     0.8551
A_1     C     0.1698     0.352     0.6561
A_0     C     0.3183     0.2993     0.9591
A_0     C     0.4573     0.9988     0.7829
A_3     C     0.9548     0.7199     0.4227
A_3     C     0.5025     0.7931     0.9662
A_0     C     0.5035     0.6584     0.3475
A_1     C     0.8489     0.3511     0.1415
A_3     C     0.3062     0.2547     0.5183
A_2     C     0.8166     0.4702     0.5676
A_3     C     0.4267     0.6426     0.2839
A_2     C     0.2426     0.253     0.4346
A_1     C     0.4051     0.4692     0.0195
A_2     C     0.9277     0.4785     0.5795
A_3     C     0.3044     0.6693     0.5754
A_2     C     0.3886     0.7853     0.8594
A_0     C     0.6681     0.0304     0.0583
A_1     C     0.4801     0.5671     0.5772
A_1     C     0.1027     0.3473     0.0446
A_3     C     0.666     0.4562     0.9407
A_0     C     0.357     0.1121     0.7492
A_2     C     0.1125     0.4857     0.0797
A_2     C     0.5247     0.6425     0.2239
A_1     C     0.9748     0.3614     0.7827
A_2     C     0.6978     0.4434     0.5498
A_1     C     0.9946     0.54     0.6006
A_0     C     0.7997     0.7158     0.2026
A_2     C     0.1829     0.0815     0.3357
A_3     C     0.8896     0.2232     0.0588
A_3     C     0.6103     0.605     0.0466
A_2     C     0.1245     0.324     0.8762
A_2     C     0.0783     0.7632     0.9477
A_0     C     0.4733     0.5748     0.2741
A_3     C     0.6967     0.786     0.002
A_3     C     0.6392     0.7985     0.8361
A_2     C     0.0373     0.2961     0.2541
A_1     C     0.2006     0.091     0.0522
A_1     C     0.9062     0.2526     0.3428
A_0     C     0.9602     0.8958     0.384
A_0     C     0.2661     0.8463     0.7221
A_3     C     0.4205     0.851     0.2705
A_2     C     0.949     0.2926     0.8697
A_2     C     0.952     0.6556     0.4881
A_2     C     0.9263     0.8418     0.4304
A_3     C     0.4391     0.4591     0.4147
A_0     C     0.9084     0.1589     0.4045
A_0     C     0.0484     0.0015     0.4165
A_3     C     0.7604     0.6588     0.9114
A_0     C     0.7033     0.8099     0.8191
A_1     C     0.2623     0.9809     0.7075
A_2     C     0.9645     0.9473     0.7267
A_3     C     0.7614     0.7102     0.9403
A_0     C     0.5873     0.2101     0.9255
A_0     C     0.4296     0.176     0.6245
A_3     C     0.0682     0.0586     0.363
A_2     C     0.3292     0.0803     0.7766
A_2     C     0.2438     0.8088     0.7746
A_0     C     0.3233     0.0092     0.7021
A_2     C     0.7481     0.3748     0.3117
A_3     C     0.1597     0.3078     0.628
A_2     C     0.5063     0.9912     0.2339
A_3     C     0.3664     0.3489     0.3395
A_0     C     0.1311     0.1856     0.9769
A_3     C     0.9406     0.0852     0.5745
A_2     C     0.539     0.8952     0.8724
A_2     C     0.7362     0.6746     0.9777
A_1     C     0.6709     0.2037     0.7468
A_1     C     0.1076     0.7942     0.7986
A_0     C     0.4695     0.935     0.5858
A_0     C     0.5576     0.9686     0.9639
A_3     C     0.0466     0.5286     0.4364
A_0     C     0.6688     0.4903     0.4321
A_3     C     0.1444     0.7863     0.0241
A_1     C     0.5295     0.6643     0.4298
A_2     C     0.0894     0.679     0.2194
A_1     C     0.4197     0.3053     0.4711
A_1     C     0.4587     0.3227     0.0569
A_3     C     0.3858     0.82     0.9241
A_2     C     0.3974     0.9991     0.4652
A_0     C     0.3639     0.5646     0.383
A_2     C     0.0777     0.5521     0.0665
A_0     C     0.1681     0.8546     0.8076
A_0     C     0.685     0.486     0.7368
A_0     C     0.3529     0.3405     0.0111
A_2     C     0.6953     0.5233     0.2895
A_0     C     0.5662     0.3608     0.6187
A_0     C     0.7783     0.628     0.3128
A_2     C     0.8711     0.9687     0.2052
A_0     C     0.6998     0.5813     0.133
A_1     C     0.1103     0.9502     0.2067
A_0     C     0.1051     0.1027     0.4183
A_3     C     0.278     0.7943     0.6594
A_3     C     0.2055     0.3813     0.5773
A_1     C     0.9281     0.7422     0.7815
A_1     C     0.1707     0.3617     0.8837
A_1     C     0.5382     0.9414     0.4283
A_1     C     0.7299     0.0733     0.8737
A_3     C     0.683     0.4091     0.8278
A_0     C     0.6036     0.5487     0.0105
A_0     C     0.0257     0.4766     0.9429
A_3     C     0.3866     0.2452     0.6128
A_0     C     0.443     0.7831     0.7197
A_2     C     0.617     0.9412     0.6681
A_0     C     0.732     0.1648     0.0266
A_2     C     0.6355     0.2338     0.1887
A_0     C     0.5403     0.4644     0.5566
A_0     C     0.0281     0.1008     0.6802
A_2     C     0.509     0.2621     0.46
A_0     C     0.5944     0.0211     0.3953
A_2     C     0.0885     0.7179     0.7983
A_0     C     0.2643     0.3041     0.8816
A_2     C     0.8401     0.3112     0.7739
A_2     C     0.7174     0.974     0.2154
A_1     C     0.6128     0.479     0.397
A_0     C     0.9505     0.3942     0.7426
A_2     C     0.732     0.7973     0.789
A_1     C     0.5905     0.9751     0.0828
A_0     C     0.9006     0.0464     0.7472
A_1     C     0.5392     0.7407     0.5522
A_2     C     0.1862     0.8082     0.2036
A_1     C     0.3483     0.2787     0.0191
A_0     C     0.6123     0.2277     0.6932
A_3     C     0.0402     0.0252     0.1354
A_3     C     0.7966     0.8361     0.4416
A_2     C     0.8375     0.9644     0.3164
A_1     C     0.3284     0.6281     0.8614
A_1     C     0.8965     0.1473     0.3445
A_1     C     0.5765     0.0041     0.2301
A_2     C     0.5286     0.891     0.1338
A_0     C     0.2254     0.3903     0.1645
A_2     C     0.224     0.7563     0.83
A_3     C     0.8678     0.3993     0.8567
A_1     C     0.0617     0.6027     0.2602
A_3     C     0.068     0.8138     0.0452
A_3     C     0.2125     0.8921     0.3476
A_2     C     0.0856     0.1297     0.7751
A_0     C     0.6707     0.7473     0.6304
A_3     C     0.7109     0.8756     0.1772
A_1     C     0.0972     0.4011     0.0772
A_0     C     0.5089     0.4168     0.5315
A_1     C     0.6325     0.066     0.5008
A_0     C     0.9201     0.141     0.912
A_2     C     0.6698     0.1078     0.629
A_0     C     0.8152     0.6014     0.0157
A_0     C     0.682     0.2395     0.9847
A_2     C     0.3557     0.4992     0.2863
A_3     C     0.5432     0.3228     0.2891
A_0     C     0.2746     0.4395     0.3985
A_3     C     0.2282     0.9383     0.7576
A_1     C     0.6978     0.0915     0.7767
A_0     C     0.6281     0.8843     0.8375
A_0     C     0.2856     0.6916     0.9169
A_1     C     0.636     0.7954     0.4203
A_2     C     0.6325     0.0453     0.3641
A_3     C     0.1312     0.2738     0.3732
A_2     C     0.5364     0.7445     0.1
A_2     C     0.1533     0.2562     0.5355
A_2     C     0.1314     0.3171     0.7405
A_3     C     0.3709     0.3655     0.5573
A_1     C     0.6652     0.011     0.0888
A_0     C     0.8133     0.4626     0.2977
A_3     C     0.9943     0.4131     0.5282
A_2     C     0.8264     0.7007     0.7076
A_0     C     0.3     0.5137     0.4013
A_3     C     0.6113     0.5905     0.9989
A_0     C     0.7689     0.3002     0.0376
A_2     C     0.558     0.7465     0.4045
A_2     C     0.5854     0.2883     0.9162
A_3     C     0.142     0.2821     0.0775
A_3     C     0.1512     0.3547     0.8141
A_1     C     0.9628     0.9027     0.0704
A_1     C     0.4944     0.9013     0.4337
A_3     C     0.9896     0.5508     0.9529
A_1     C     0.838     0.7111     0.5443
A_3     C     0.9179     0.4635     0.0408
A_2     C     0.191     0.1534     0.7907
A_2     C     0.6499     0.566     0.514
A_1     C     0.2476     0.6508     0.4088
A_0     C     0.123     0.7854     0.9903
A_0     C     0.2927     0.4386     0.389
A_2     C     0.1557     0.2474     0.5437
A_3     C     0.9305     0.9865     0.6039
A_2     C     0.5116     0.3212     0.8944
A_1     C     0.2897     0.7754     0.2199
A_1     C     0.7052     0.8471     0.6738
A_1     C     0.8363     0.2822     0.0885
A_1     C     0.6057     0.0905     0.7573
A_3     C     0.698     0.8006     0.8606
A_0     C     0.2875     0.7928     0.1176
A_0     C     0.3107     0.0766     0.343
A_0     C     0.6692     0.497     0.0163
A_3     C     0.284     0.0794     0.3534
A_2     C     0.8146     0.2289     0.1711
A_1     C     0.2691     0.8882     0.2022
A_2     C     0.1224     0.2505     0.1785
A_3     C     0.6935     0.6609     0.6573
A_0     C     0.8707     0.0927     0.5305
A_2     C     0.4718     0.1108     0.254
A_3     C     0.3309     0.0719     0.1017
A_3     C     0.0282     0.0219     0.5981
A_3     C     0.6254     0.1189     0.4754
A_3     C     0.6346     0.6459     0.5586
A_2     C     0.2724     0.4221     0.1405
A_2     C     0.4101     0.489     0.3896
A_1     C     0.9596     0.1636     0.4792
A_3     C     0.8681     0.0691     0.5388
A_1     C     0.745     0.1818     0.298
A_0     C     0.8468     0.854     0.3139
A_3     C     0.4477     0.3792     0.5406
A_1     C     0.8329     0.3344     0.9135
A_1     C     0.7602     0.8137     0.7527
A_2     C     0.835     0.2691     0.1315
A_0     C     0.8402     0.0324     0.9048
A_1     C     0.1585     0.9668     0.4656
A_3     C     0.9931     0.895     0.8864
A_1     C     0.0865     0.2197     0.1565
A_3     C     0.1135     0.8857     0.3294
A_2     C     0.0279     0.8093     0.546
A_2     C     0.2109     0.9507     0.979
A_2     C     0.6935     0.484     0.6833
A_3     C     0.4793     0.8341     0.0094
A_2     C     0.0536     0.201     0.3537
A_3     C     0.982     0.7195     0.2925
A_3     C     0.3874     0.7584     0.7934
A_1     C     0.3527     0.6794     0.4171
A_2     C     0.3883     0.7651     0.2991
A_3     C     0.0671     0.913     0.8994
A_0     C     0.9919     0.6745     0.6749
A_0     C     0.5496     0.1307     0.3696
A_1     C     0.3421     0.9665     0.9781
A_2     C     0.7506     0.0866     0.9681
A_2     C     0.0642     0.3529     0.4227
A_1     C     0.9956     0.3849     0.5164
A_0     C     0.7455     0.7206     0.7569
A_3     C     0.4737     0.3686     0.8065
A_1     C     0.8721     0.0097     0.5107
A_0     C     0.9282     0.9081     0.5896
A_0     C     0.2318     0.9056     0.2136
A_1     C     0.0194     0.7083     0.3275
A_2     C     0.2932     0.6481     0.6884
A_2     C     0.8961     0.4808     0.3021
A_2     C     0.9365     0.5302     0.1943
A_0     C     0.6911     0.1707     0.0751
A_2     C     0.9758     0.9012     0.9354
A_0     C     0.255     0.3068     0.0956
A_0     C     0.9951     0.1201     0.2115
A_1     C     0.9136     0.1808     0.4659
A_3     C     0.8513     0.3744     0.738
A_3     C     0.7017     0.5573     0.5868
A_3     C     0.1121     0.838     0.4414
A_3     C     0.4343     0.9983     0.1308
A_1     C     0.0225     0.807     0.9772
A_1     C     0.6089     0.621     0.7184
A_0     C     0.6275     0.9954     0.9305
A_3     C     0.1235     0.3244     0.5756
A_3     C     0.6013     0.9311     0.162
A_3     C     0.0699     0.7051     0.1566
A_1     C     0.0774     0.0533     0.9228
A_2     C     0.0822     0.437     0.5833
A_1     C     0.7381     0.1717     0.207
A_1     C     0.6555     0.3502     0.5822
A_2     C     0.1395     0.3986     0.7157
A_0     C     0.7111     0.4052     0.1906
A_2     C     0.815     0.5361     0.7607
A_3     C     0.5709     0.7527     0.1419
A_3     C     0.3159     0.2526     0.9197
A_2     C     0.3922     0.5049     0.1657
A_1     C     0.3478     0.5373     0.7756
A_3     C     0.5596     0.8085     0.5841
A_0     C     0.4178     0.8414     0.4718
A_1     C     0.0294     0.1878     0.781
A_1     C     0.8912     0.3082     0.7863
A_2     C     0.507     0.2471     0.8156
A_0     C     0.4968     0.8196     0.4775
A_2     C     0.7344     0.5719     0.7833
A_0     C     0.4656     0.8917     0.317
A_1     C     0.62     0.629     0.3837
A_3     C     0.8022     0.9227     0.0939
A_2     C     0.0809     0.6845     0.9052
A_3     C     0.4673     0.3389     0.2897
A_1     C     0.3908     0.2193     0.1343
A_0     C     0.5616     0.5311     0.6157
A_2     C     0.26     0.0851     0.2511
A_3     C     0.0683     0.4039     0.5605
A_2     C     0.1311     0.7317     0.0335
A_0     C     0.5854     0.0307     0.5792
A_2     C     0.1609     0.0191     0.5796
A_2     C     0.1738     0.1036     0.4176
A_1     C     0.0921     0.26     0.9559
A_2     C     0.2587     0.1899     0.4196
A_3     C     0.7514     0.5338     0.6694
A_3     C     0.2628     0.069     0.0858
A_1     C     0.9612     0.8176     0.0947
A_2     C     0.4374     0.5281     0.4584
A_2     C     0.6247     0.761     0.8015
A_2     C     0.4368     0.6107     0.3821
A_1     C     0.4871     0.3435     0.4009
A_0     C     0.0526     0.816     0.5169
A_1     C     0.509     0.4474     0.8189
A_0     C     0.1728     0.2432     0.806
A_2     C     0.0669     0.7509     0.738
A_2     C     0.2654     0.619     0.3191
A_0     C     0.6906     0.2264     0.1405
A_1     C     0.2165     0.9024     0.4353
A_1     C     0.4893     0.3637     0.3384
A_1     C     0.5622     0.1608     0.7633
A_2     C     0.432     0.2064     0.2407
A_0     C     0.6657     0.5654     0.0324
A_0     C     0.0066     0.9549     0.8885
A_3     C     0.5429     0.0268     0.7147
A_2     C     0.0814     0.1454     0.1084
A_0     C     0.323     0.565     0.7556
A_1     C     0.4574     0.5832     0.5188
A_3     C     0.5564     0.82     0.8129
A_2     C     0.9404     0.1843     0.1217
A_1     C     0.345     0.5516     0.5497
A_0     C     0.0284     0.5159     0.9242
A_3     C     0.6345     0.7969     0.0541
A_0     C     0.787     0.7149     0.8758
A_0     C     0.5479     0.1703     0.4404
A_1     C     0.7466     0.5911     0.3698
A_2     C     0.1803     0.3926     0.4016
A_0     C     0.4202     0.6652     0.7649
A_1     C     0.1757     0.2645     0.3622
A_0     C     0.7731     0.3789     0.1089
A_1     C     0.69     0.8596     0.3831
A_3     C     0.4619     0.763     0.8412
A_2     C     0.8757     0.1792     0.2233
A_3     C     0.0871     0.899     0.932
A_1     C     0.0533     0.61     0.2715
A_1     C     0.4164     0.1221     0.9865
A_3     C     0.3623     0.3512     0.1658
A_2     C     0.9093     0.4144     0.1746
A_2     C     0.2008     0.971     0.2146
A_2     C     0.1293     0.2428     0.4902
A_1     C     0.026     0.9268     0.4201
A_2     C     0.3331     0.9723     0.7851
A_3     C     0.5076     0.1118     0.3207
A_3     C     0.8383     0.4562     0.3545
A_2     C     0.7566     0.5009     0.868
A_1     C     0.851     0.0736     0.5301
A_2     C     0.9631     0.5226     0.7258
A_0     C     0.0149     0.5679     0.6421
A_3     C     0.5264     0.399     0.128
A_0     C     0.4787     0.4841     0.4981
A_0     C     0.6303     0.5962     0.8898
A_1     C     0.5866     0.6724     0.6432
A_0     C     0.816     0.1202     0.638
A_0     C     0.6688     0.6029     0.2174
A_0     C     0.7197     0.5307     0.9015
A_3     C     0.2573     0.121     0.1504
A_3     C     0.0473     0.8766     0.0808
A_1     C     0.6198     0.9253     0.1106
A_1     C     0.3416     0.1148     0.8654
A_1     C     0.3617     0.919     0.2913
A_0     C     0.5538     0.062     0.6986
A_0     C     0.5812     0.3578     0.7826
A_3     C     0.0349     0.285     0.1628
A_0     C     0.4219     0.9297     0.7098
A_2     C     0.7737     0.9714     0.4193
A_3     C     0.8353     0.1764     0.9324
A_3     C     0.6953     0.7003     0.452
A_0     C     0.6072     0.446     0.3902
A_3     C     0.4691     0.3182     0.1282
A_1     C     0.7189     0.2519     0.9645
A_3     C     0.6228     0.4951     0.4757
A_0     C     0.545     0.213     0.4506
A_3     C     0.8524     0.5004     0.5376
A_0     C     0.1782     0.9188     0.9053
A_2     C     0.4488     0.8334     0.1719
A_2     C     0.3056     0.9254     0.1741
A_0     C     0.912     0.3569     0.0861
A_2     C     0.6868     0.9123     0.2435
A_3     C     0.599     0.323     0.3515
A_3     C     0.2912     0.0746     0.0477
A_1     C     0.7631     0.2796     0.0543
A_1     C     0.9429     0.6788     0.9027
A_1     C     0.3848     0.5432     0.0683
A_1     C     0.2083     0.6867     0.5937
A_1     C     0.0809     0.0862     0.0325
A_3     C     0.631     0.6793     0.7906
A_3     C     0.9499     0.5715     0.6962
A_3     C     0.6374     0.8369     0.3574
A_0     C     0.0595     0.5863     0.6453
A_0     C     0.4327     0.7665     0.4352
A_0     C     0.0763     0.0289     0.0548
A_1     C     0.7444     0.1602     0.0574
A_2     C     0.0667     0.9351     0.878
A_1     C     0.0308     0.54     0.3857
A_1     C     0.9569     0.4273     0.2853
A_0     C     0.9655     0.4695     0.7314
A_1     C     0.7541     0.8231     0.0034
A_3     C     0.7084     0.0312     0.6083
A_1     C     0.6125     0.907     0.5836
A_1     C     0.28     0.9278     0.5187
A_0     C     0.1048     0.8357     0.8751
A_0     C     0.1557     0.2547     0.5486
A_1     C     0.2336     0.4061     0.1341
A_1     C     0.9871     0.9066     0.1111
A_1     C     0.0043     0.9134     0.2268
A_0     C     0.5103     0.2841     0.8007
A_2     C     0.109     0.4886     0.8448
A_3     C     0.6709     0.8921     0.3284
A_0     C     0.8567     0.7037     0.7053
A_2     C     0.5279     0.5355     0.754
A_3     C     0.7065     0.1491     0.9411
A_0     C     0.8252     0.3895     0.0521
A_2     C     0.5283     0.3617     0.0541
A_2     C     0.5625     0.6405     0.3071
A_0     C     0.233     0.3453     0.2518
A_3     C     0.1316     0.5916     0.4226
A_1     C     0.0073     0.1926     0.2518
A_3     C     0.2386     0.6381     0.7724
A_3     C     0.1674     0.2059     0.776
A_1     C     0.546     0.741     0.0628
A_2     C     0.2518     0.6643     0.1429
A_2     C     0.3917     0.1406     0.5386
A_3     C     0.9873     0.3357     0.4414
A_1     C     0.4366     0.4018     0.9784
A_1     C     0.1935     0.861     0.3832
A_0     C     0.1608     0.3311     0.1886
A_1     C     0.1603     0.1355     0.7722
A_3     C     0.2573     0.6153     0.2154
A_1     C     0.4765     0.6397     0.4712
A_1     C     0.0906     0.9561     0.3528
A_3     C     0.012     0.2446     0.763
A_1     C     0.8727     0.3534     0.3452
A_0     C     0.2941     0.6301     0.2047
A_0     C     0.6116     0.1044     0.3752
A_3     C     0.3623     0.8929     0.765
A_2     C     0.291     0.1653     0.9426
A_2     C     0.9044     0.6519     0.1554
A_2     C     0.6706     0.1985     0.9615
A_3     C     0.7884     0.1336     0.612
A_3     C     0.5362     0.6098     0.7449
A_1     C     0.1678     0.0432     0.8246
A_2     C     0.5782     0.4541     0.8295
A_3     C     0.5883     0.0919     0.115
A_3     C     0.1275     0.0953     0.6244
A_1     C     0.732     0.7477     0.0366
A_0     C     0.057     0.5981     0.2535
A_0     C     0.6056     0.5237     0.4536
A_2     C     0.8564     0.112     0.3784
A_3     C     0.6096     0.3821     0.6144
A_2     C     0.8688     0.7438     0.3052
A_3     C     0.5928     0.8616     0.8676
A_2     C     0.7245     0.5996     0.5551
A_3     C     0.3924     0.7399     0.8016
A_1     C     0.7795     0.9212     0.1986
A_1     C     0.3575     0.5406     0.6615
A_1     C     0.9773     0.4478     0.0565
A_1     C     0.9788     0.0666     0.9563
A_3     C     0.5621     0.3289     0.2912
A_3     C     0.7457     0.9765     0.0227
A_3     C     0.8524     0.0245     0.3159
A_0     C     0.1732     0.9835     0.9509
A_3     C     0.6503     0.1055     0.9503
A_0     C     0.4945     0.5798     0.1753
A_2     C     0.0814     0.2267     0.2776
A_3     C     0.86     0.7591     0.5752
A_3     C     0.6789     0.537     0.0282
A_3     C     0.2138     0.7754     0.1424
A_1     C     0.4409     0.1393     0.9421
A_0     C     0.8883     0.0324     0.5583
A_0     C     0.7548     0.9571     0.9944
A_1     C     0.3328     0.3667     0.8752
A_1     C     0.5868     0.3055     0.6011
A_0     C     0.9553     0.597     0.8694
A_0     C     0.1337     0.064     0.9006
A_1     C     0.7256     0.2405     0.0746
A_0     C     0.4901     0.0771     0.8748
A_0     C     0.4854     0.4387     0.4379
A_0     C     0.4437     0.7564     0.642
A_2     C     0.7891     0.4763     0.5332
A_0     C     0.8538     0.8792     0.9732
A_1     C     0.2485     0.2217     0.3539
A_1     C     0.5259     0.283     0.1442
A_0     C     0.8966     0.9469     0.5018
A_1     C     0.8329     0.3091     0.9507
A_0     C     0.3399     0.2731     0.087
A_2     C     0.9103     0.4365     0.6699
A_1     C     0.241     0.1866     0.1882
A_2     C     0.7922     0.1939     0.6107
A_1     C     0.8343     0.2686     0.1509
A_1     C     0.1902     0.8898     0.5544
A_0     C     0.278     0.6027     0.2764
A_0     C     0.339     0.5356     0.9308
A_0     C     0.3638     0.4117     0.4322
A_1     C     0.5361     0.2343     0.0691
A_0     C     0.3223     0.185     0.7152
A_1     C     0.089     0.6425     0.5291
A_1     C     0.3899     0.0628     0.3193
A_3     C     0.6043     0.7131     0.002
A_3     C     0.1626     0.7844     0.0278
A_2     C     0.7798     0.3903     0.6065
A_3     C     0.4427     0.2033     0.1443
A_1     C     0.9607     0.8148     0.1561
A_2     C     0.0201     0.5237     0.3293
A_0     C     0.5258     0.2839     0.4724
A_2     C     0.878     0.0512     0.563
A_3     C     0.6772     0.2658     0.3756
A_2     C     0.7285     0.2741     0.3117
A_2     C     0.443     0.4297     0.7866
A_1     C     0.2754     0.9963     0.5617
A_0     C     0.8528     0.2634     0.7507
A_2     C     0.8916     0.2591     0.5656
A_2     C     0.6057     0.7285     0.706
A_0     C     0.2929     0.1782     0.7753
A_3     C     0.4676     0.6602     0.6039
A_0     C     0.5014     0.9893     0.9272
A_3     C     0.3049     0.6637     0.7572
A_2     C     0.9567     0.2003     0.9229
A_1     C     0.9814     0.1027     0.3014
A_2     C     0.2107     0.5322     0.5683
A_1     C     0.9251     0.0475     0.1712
A_3     C     0.8698     0.6122     0.5929
A_0     C     0.2186     0.9318     0.4968
A_3     C     0.3143     0.0937     0.7516
A_0     C     0.2876     0.6772     0.2788
A_0     C     0.8619     0.634     0.7319
A_3     C     0.6237     0.4785     0.7789
A_1     C     0.4345     0.0845     0.8871
A_0     C     0.7327     0.965     0.8393
A_3     C     0.0417     0.1462     0.6506
A_3     C     0.9115     0.8563     0.406
A_0     C     0.0741     0.3902     0.439
A_0     C     0.0233     0.5652     0.3995
A_2     C     0.7881     0.4465     0.3913
A_1     C     0.1569     0.2049     0.7024
A_2     C     0.9899     0.9758     0.0648
A_2     C     0.4638     0.7223     0.3787
A_0     C     0.1898     0.6883     0.2064
A_1     C     0.7017     0.4349     0.1914
A_0     C     0.5409     0.8094     0.6845
A_2     C     0.0567     0.631     0.382
A_2     C     0.633     0.0468     0.3807
A_1     C     0.3121     0.3244     0.5407
A_0     C     0.1314     0.8042     0.9174
A_0     C     0.996     0.0236     0.6881
A_1     C     0.8562     0.553     0.9891
A_1     C     0.7433     0.8883     0.9499
A_3     C     0.1632     0.2039     0.0952
A_0     C     0.6041     0.1728     0.2216
A_1     C     0.2486     0.1013     0.6987
A_3     C     0.3148     0.0021     0.9563
A_0     C     0.9428     0.9997     0.097
A_3     C     0.2401     0.3509     0.4436
A_2     C     0.7244     0.4422     0.4559
A_1     C     0.8757     0.33     0.8489
A_3     C     0.9998     0.1152     0.7116
A_2     C     0.4463     0.2659     0.662
A_2     C     0.4492     0.7143     0.8843
A_1     C     0.1987     0.3305     0.4463
A_1     C     0.5073     0.9944     0.2873
A_2     C     0.5681     0.6701     0.0619
A_2     C     0.7568     0.3939     0.5477
A_2     C     0.1001     0.1236     0.1711
A_0     C     0.0388     0.7972     0.2867
A_2     C     0.1737     0.5692     0.8497
A_3     C     0.6672     0.9277     0.3491
A_3     C     0.2995     0.6385     0.7002
A_0     C     0.2842     0.7525     0.4892
A_3     C     0.0377     0.6975     0.7329
A_0     C     0.1335     0.9349     0.8696
A_1     C     0.8254     0.5449     0.7882
A_0     C     0.4256     0.6156     0.8206
A_2     C     0.6393     0.976     0.4757
A_3     C     0.2027     0.7201     0.1364
A_0     C     0.1773     0.706     0.4934
A_3     C     0.2372     0.5692     0.3846
A_2     C     0.8837     0.4256     0.7043
A_0     C     0.7569     0.0069     0.1622
A_3     C     0.4157     0.2715     0.6633
A_2     C     0.3997     0.7198     0.9057
A_1     C     0.3371     0.8911     0.3408
A_2     C     0.9174     0.782     0.5063
A_0     C     0.6985     0.4662     0.6304
A_2     C     0.975     0.9285     0.9954
A_0     C     0.5448     0.384     0.2287
A_2     C     0.6144     0.2607     0.6293
A_2     C     0.6755     0.6207     0.5407
A_0     C     0.4224     0.904     0.7739
A_2     C     0.5197     0.5489     0.9396
A_3     C     0.74     0.5262     0.8254
A_2     C     0.5335     0.2496     0.0818
A_3     C     0.0927     0.0288     0.9463
A_2     C     0.9867     0.5979     0.9911
A_3     C     0.9968     0.1778     0.3503
A_0     C     0.4929     0.8871     0.5066
A_1     C     0.4354     0.335     0.5663
A_2     C     0.7171     0.3322     0.7871
A_3     C     0.9546     0.076     0.9179
A_0     C     0.6061     0.435     0.0156
A_3     C     0.2615     0.3548     0.4627
A_3     C     0.3498     0.2926     0.6227
A_0     C     0.0246     0.8019     0.3112
A_1     C     0.6608     0.33     0.0887
A_2     C     0.7434     0.3411     0.3036
A_0     C     0.4309     0.7202     0.9534
A_2     C     0.5394     0.3835     0.0303
A_0     C     0.1387     0.384     0.9687
A_0     C     0.5228     0.7397     0.6322
A_0     C     0.1732     0.6428     0.0363
A_1     C     0.1555     0.7842     0.5122
A_0     C     0.6556     0.68     0.4135
A_2     C     0.6809     0.3776     0.2849
A_0     C     0.002     0.7365     0.082
A_3     C     0.9329     0.3552     0.5753
A_3     C     0.2357     0.0944     0.6576
A_0     C     0.9642     0.3567     0.4296
A_1     C     0.8003     0.2726     0.1565
A_1     C     0.6541     0.8254     0.2941
A_1     C     0.0801     0.5489     0.5893
A_3     C     0.3306     0.6118     0.6286
A_3     C     0.1351     0.7556     0.0209
A_2     C     0.81     0.8631     0.9294
A_2     C     0.3009     0.1782     0.1491
A_3     C     0.4037     0.5522     0.2817
A_3     C     0.7948     0.8319     0.0799
A_1     C     0.2707     0.2986     0.5226
A_0     C     0.7109     0.5311     0.431
A_1     C     0.036     0.7366     0.8239
A_1     C     0.827     0.3727     0.5671
A_3     C     0.3366     0.7014     0.2881
A_3     C     0.5508     0.1896     0.3889
A_1     C     0.3996     0.0247     0.4556
A_2     C     0.0057     0.9471     0.6732
A_3     C     0.6623     0.5914     0.7135
A_3     C     0.7272     0.8716     0.9471
A_1     C     0.764     0.9585     0.4857
A_2     C     0.1909     0.1531     0.5747
A_1     C     0.979     0.0943     0.4773
A_0     C     0.1206     0.2664     0.5499
A_2     C     0.4938     0.8439     0.8543
A_2     C     0.795     0.3339     0.9457
A_1     C     0.0607     0.9805     0.6317
A_2     C     0.0378     0.1725     0.1346
A_3     C     0.2073     0.9106     0.6133
A_3     C     0.7376     0.145     0.8322
A_3     C     0.0678     0.9506     0.5461
A_1     C     0.4472     0.1145     0.2028
A_1     C     0.7839     0.624     0.59
A_2     C     0.5418     0.6543     0.8973
A_3     C     0.0686     0.001     0.0032
A_3     C     0.2449     0.0558     0.8756
A_3     C     0.7208     0.1617     0.9807
A_3     C     0.3912     0.6452     0.3713
A_3     C     0.4192     0.4539     0.0244
A_0     C     0.1275     0.6196     0.9079
A_1     C     0.3703     0.7065     0.9059
A_2     C     0.8256     0.4057     0.1751
A_0     C     0.6705     0.959     0.8783
A_0     C     0.308     0.4682     0.196
A_0     C     0.3209     0.8495     0.738
A_0     C     0.6375     0.9981     0.102
A_0     C     0.7734     0.666     0.8107
A_1     C     0.4532     0.1243     0.5571
A_1     C     0.5152     0.0547     0.9957
A_2     C     0.1214     0.3176     0.999
A_1     C     0.169     0.3698     0.8587
A_3     C     0.36     0.6063     0.3045
A_1     C     0.8978     0.6422     0.745
A_3     C     0.1672     0.5724     0.8492
A_2     C     0.4956     0.2288     0.2793
A_0     C     0.7591     0.4112     0.3227
A_0     C     0.5506     0.9558     0.205
A_2     C     0.1636     0.3958     0.7944
A_2     C     0.1371     0.9414     0.6757
A_2     C     0.0516     0.3003     0.4809
A_3     C     0.06     0.9601     0.2105
A_1     C     0.4487     0.6609     0.8526
A_3     C     0.4487     0.3299     0.4694
A_3     C     0.4591     0.0957     0.9957
A_0     C     0.4507     0.7147     0.7674
A_2     C     0.685     0.2172     0.0678
A_1     C     0.3249     0.1602     0.6986
A_3     C     0.1408     0.3796     0.8834
A_0     C     0.5252     0.8197     0.9314
A_1     C     0.429     0.9264     0.1894
A_1     C     0.3223     0.6493     0.4542
A_3     C     0.4619     0.7738     0.7961
A_0     C     0.8919     0.6447     0.9339
A_1     C     0.5739     0.4916     0.6556
A_2     C     0.0974     0.0355     0.348
A_1     C     0.1913     0.0058     0.1255
A_3     C     0.2971     0.278     0.7675
A_1     C     0.6936     0.1997     0.2148
A_3     C     0.0284     0.951     0.4211
A_1     C     0.2855     0.2381     0.7988
A_1     C     0.2159     0.4689     0.3783
A_1     C     0.6981     0.1863     0.1955
A_1     C     0.2595     0.0241     0.9015
A_3     C     0.0544     0.0537     0.3467
A_1     C     0.3095     0.3535     0.4808
A_0     C     0.1046     0.9804     0.5764
A_1     C     0.7599     0.1774     0.9865
A_0     C     0.9184     0.5624     0.6426
A_3     C     0.2088     0.9051     0.2093
A_1     C     0.968     0.9665     0.6032
A_2     C     0.9345     0.6608     0.085
A_1     C     0.281     0.6799     0.5225
A_2     C     0.2316     0.9488     0.1569
A_1     C     0.8446     0.1043     0.9871
A_1     C     0.8152     0.6824     0.0773
A_2     C     0.1432     0.6963     0.1445
A_2     C     0.1051     0.904     0.3397
A_2     C     0.5013     0.3676     0.0307
A_1     C     0.8522     0.5183     0.2999
A_0     C     0.9641     0.8312     0.8766
A_3     C     0.1159     0.0332     0.0782
A_2     C     0.0207     0.2661     0.7078
A_0     C     0.028     0.3728     0.9423
A_2     C     0.5958     0.7394     0.7546
A_3     C     0.8293     0.5352     0.0217
A_1     C     0.9276     0.6396     0.4646
A_1     C     0.6504     0.2036     0.5566
A_3     C     0.4107     0.71     0.6923
A_3     C     0.3623     0.0964     0.8892
A_3     C     0.6269     0.6833     0.5028
A_1     C     0.3447     0.6766     0.8271
A_2     C     0.1465     0.6635     0.2944
A_3     C     0.2433     0.5035     0.4602
A_1     C     0.1456     0.0925     0.3773
A_3     C     0.2335     0.6477     0.9835
A_0     C     0.6188     0.2998     0.0903
A_3     C     0.1673     0.5299     0.4249
A_2     C     0.75     0.2376     0.8482
A_2     C     0.198     0.0747     0.2489
A_0     C     0.648     0.1064     0.0447
A_3     C     0.023     0.0085     0.0473
A_1     C     0.9164     0.6304     0.9793
A_1     C     0.1112     0.6452     0.74
A_0     C     0.4386     0.346     0.6078
A_0     C     0.0306     0.3465     0.7048
A_0     C     0.0875     0.3433     0.6198
A_3     C     0.2318     0.8697     0.4581
A_0     C     0.4147     0.7994     0.1165
A_3     C     0.7133     0.3486     0.6566
A_1     C     0.8261     0.4861     0.049
A_0     C     0.1208     0.0197     0.8317
A_3     C     0.0294     0.8389     0.4577
A_0     C     0.8744     0.068     0.3615
A_1     C     0.9828     0.6647     0.4272
A_0     C     0.225     0.4371     0.3499
A_0     C     0.955     0.7129     0.0048
A_0     C     0.0841     0.8542     0.5789
A_0     C     0.2309     0.5881     0.6987
A_1     C     0.5238     0.373     0.8979
A_2     C     0.8703     0.4458     0.6117
A_3     C     0.9736     0.9817     0.0498
A_2     C     0.257     0.4749     0.0019
A_2     C     0.0953     0.3589     0.0269
A_1     C     0.4493     0.1765     0.1015
A_2     C     0.2221     0.7223     0.8697
A_0     C     0.0654     0.939     0.7272
A_0     C     0.0007     0.7544     0.4953
A_3     C     0.2768     0.0237     0.3714
A_3     C     0.8471     0.8928     0.4402
A_1     C     0.757     0.6201     0.3562
A_0     C     0.2442     0.2103     0.9507
A_1     C     0.6386     0.8628     0.2524
A_3     C     0.8769     0.8746     0.2169
A_2     C     0.2206     0.019     0.8233
A_1     C     0.7294     0.2007     0.8031
A_1     C     0.4149     0.7327     0.0753
A_1     C     0.2776     0.4918     0.5433
A_0     C     0.5598     0.4685     0.1067
A_3     C     0.9399     0.3729     0.139
A_1     C     0.4467     0.1054     0.4029
A_2     C     0.1057     0.9933     0.5805
A_3     C     0.0037     0.5571     0.2571
A_2     C     0.1098     0.1607     0.9988
A_2     C     0.9065     0.4509     0.7178
A_1     C     0.9505     0.1222     0.3604
A_3     C     0.859     0.8136     0.6899
A_3     C     0.9204     0.9452     0.2653
A_1     C     0.7702     0.7265     0.899
A_1     C     0.7957     0.5589     0.7345
A_2     C     0.0047     0.6362     0.5505
A_0     C     0.6531     0.2796     0.2258
A_0     C     0.179     0.7953     0.8423
A_2     C     0.0638     0.0512     0.6091
A_1     C     0.669     0.5968     0.5364
A_2     C     0.493     0.8117     0.4832
A_0     C     0.4569     0.7486     0.7057
A_2     C     0.9211     0.2224     0.2944
A_0     C     0.742     0.722     0.8645
A_3     C     0.7549     0.1034     0.1368
A_3     C     0.8437     0.3651     0.2729
A_2     C     0.559     0.3913     0.6413
A_2     C     0.0591     0.7081     0.3526
A_3     C     0.1545     0.819     0.8823
A_0     C     0.6415     0.4461     0.2692
A_3     C     0.4303     0.7345     0.1229
A_3     C     0.5867     0.8108     0.1673
A_2     C     0.293     0.9904     0.1639
A_2     C     0.8939     0.135     0.3997
A_2     C     0.1117     0.1202     0.5126
A_1     C     0.881     0.5548     0.0433
A_1     C     0.5116     0.8578     0.7186
A_3     C     0.5293     0.7921     0.8738
A_1     C     0.1801     0.0739     0.3986
A_0     C     0.9817     0.7688     0.7677
A_1     C     0.2871     0.875     0.3286
A_3     C     0.2957     0.4496     0.0338
A_0     C     0.495     0.1219     0.4023
A_3     C     0.7369     0.4239     0.3189
A_0     C     0.7689     0.0013     0.561
A_2     C     0.8693     0.1861     0.5868
A_1     C     0.299     0.4023     0.0902
A_0     C     0.2567     0.2054     0.4904
A_0     C     0.3121     0.0924     0.1345
A_3     C     0.8671     0.9668     0.5889
A_0     C     0.2698     0.7498     0.8374
A_3     C     0.6478     0.7143     0.5631
A_1     C     0.2284     0.287     0.2472
A_3     C     0.1373     0.3813     0.4126
A_3     C     0.0079     0.7229     0.6998
A_1     C     0.1253     0.1248     0.4205
A_2     C     0.9443     0.4587     0.8778
A_2     C     0.9648     0.4526     0.2652
A_3     C     0.7695     0.2339     0.6298
A_0     C     0.7309     0.8959     0.4947
A_1     C     0.557     0.0216     0.021
A_0     C     0.4752     0.2877     0.5368
A_3     C     0.0347     0.0304     0.3999
A_2     C     0.0299     0.0363     0.9264
A_1     C     0.4824     0.3428     0.9622
A_3     C     0.0267     0.6149     0.9105
A_0     C     0.1582     0.2709     0.6837
A_1     C     0.8446     0.7843     0.6171
A_3     C     0.4135     0.9889     0.7985
A_1     C     0.4594     0.9698     0.3474
A_3     C     0.5198     0.217     0.7697
A_2     C     0.0229     0.5577     0.909
A_1     C     0.1514     0.3688     0.0966
A_1     C     0.9585     0.9788     0.8315
A_0     C     0.1795     0.5597     0.8841
A_3     C     0.1786     0.8405     0.1556
A_2     C     0.2906     0.6036     0.0599
A_3     C     0.7821     0.4581     0.2785
A_3     C     0.5607     0.5811     0.0794
A_1     C     0.7376     0.0269     0.3305
A_0     C     0.3335     0.6199     0.2902
A_1     C     0.0392     0.4698     0.353
A_0     C     0.7962     0.1628     0.7441
A_2     C     0.4406     0.2168     0.7106
A_0     C     0.5681     0.1457     0.9831
A_0     C     0.1576     0.8009     0.3373
A_1     C     0.2286     0.5396     0.4825
A_3     C     0.9708     0.2051     0.3085
A_1     C     0.7029     0.3036     0.5742
A_1     C     0.3838     0.1765     0.9277
A_1     C     0.6986     0.9523     0.4349
A_3     C     0.9285     0.0078     0.5788
A_1     C     0.0181     0.2488     0.4713
A_2     C     0.3667     0.8736     0.6111
A_2     C     0.6725     0.4172     0.2847
A_1     C     0.3711     0.4558     0.9647
A_1     C     0.2551     0.5092     0.9795
A_2     C     0.0015     0.6652     0.9093
A_2     C     0.8217     0.4427     0.421
A_0     C     0.8817     0.876     0.1226
A_0     C     0.4778     0.3918     0.5124
A_1     C     0.8612     0.7385     0.7446
A_1     C     0.7479     0.6565     0.6719
A_0     C     0.9344     0.2835     0.7017
A_2     C     0.4401     0.1871     0.7911
A_1     C     0.2792     0.6384     0.0149
A_0     C     0.2745     0.2     0.4876
A_0     C     0.4542     0.415     0.0438
A_0     C     0.2062     0.2226     0.7557
A_0     C     0.3736     0.3655     0.4575
A_0     C     0.7395     0.054     0.9166
A_3     C     0.3045     0.0764     0.4286
A_2     C     0.6768     0.8321     0.6546
A_0     C     0.5402     0.6279     0.7793
A_0     C     0.6105     0.9403     0.1484
A_2     C     0.8824     0.1795     0.8826
A_2     C     0.1135     0.9925     0.8497
A_2     C     0.0747     0.0894     0.1273
A_0     C     0.8359     0.3158     0.6133
A_1     C     0.0855     0.6296     0.5828
A_2     C     0.3608     0.9251     0.2461
A_1     C     0.2499     0.7028     0.3955
A_2     C     0.5644     0.2392     0.347
A_1     C     0.3164     0.2294     0.8718
A_1     C     0.4487     0.3865     0.0076
A_1     C     0.9413     0.9715     0.5971
A_1     C     0.1032     0.8888     0.2719
A_1     C     0.1377     0.7635     0.7569
A_2     C     0.5337     0.3541     0.8462
A_2     C     0.9255     0.696     0.4243
A_1     C     0.2124     0.0054     0.6876
A_2     C     0.9419     0.65     0.0347
A_3     C     0.9472     0.4124     0.7357
A_0     C     0.5162     0.6223     0.5516
A_3     C     0.9476     0.6466     0.1288
A_0     C     0.0575     0.1539     0.3598
A_0     C     0.928     0.0852     0.424
A_3     C     0.1637     0.796     0.6557
A_2     C     0.0244     0.9859     0.8577
A_2     C     0.123     0.1123     0.8791
A_2     C     0.4061     0.9606     0.6877
A_0     C     0.3527     0.7089     0.8823
A_2     C     0.3365     0.6171     0.4603
A_0     C     0.7722     0.3952     0.0761
A_1     C     0.1001     0.5048     0.8678
A_0     C     0.6595     0.9443     0.3733
A_2     C     0.281     0.8091     0.2587
A_2     C     0.8788     0.8098     0.7238
A_3     C     0.1758     0.8574     0.8151
A_0     C     0.483     0.4635     0.5842
A_0     C     0.0369     0.5567     0.5454
A_0     C     0.2545     0.2669     0.0537
A_1     C     0.2528     0.693     0.0678
A_3     C     0.712     0.8727     0.9982
A_2     C     0.9759     0.8348     0.8752
A_0     C     0.026     0.2624     0.8804
A_2     C     0.1673     0.4546     0.8402
A_3     C     0.5575     0.9162     0.214
A_2     C     0.5992     0.347     0.4343
A_2     C     0.496     0.9593     0.4158
A_1     C     0.7974     0.4057     0.5233
A_0     C     0.4277     0.9311     0.6111
A_2     C     0.2354     0.5467     0.7968
A_2     C     0.2428     0.5817     0.8701
A_0     C     0.2649     0.6018     0.7152
A_0     C     0.1988     0.4942     0.2668
A_1     C     0.962     0.8389     0.6081
A_2     C     0.8866     0.6042     0.1638
A_3     C     0.5275     0.7249     0.24
A_3     C     0.7462     0.8218     0.2002
A_0     C     0.3854     0.7525     0.9736
A_3     C     0.6014     0.2257     0.0672
A_0     C     0.4343     0.3951     0.8383
A_3     C     0.6172     0.5927     0.519
A_3     C     0.3594     0.0038     0.3907
A_3     C     0.5562     0.8926     0.7486
A_2     C     0.0381     0.1557     0.735
A_1     C     0.1007     0.9631     0.4673
A_1     C     0.356     0.5891     0.3405
A_0     C     0.4006     0.6214     0.3953
A_0     C     0.8225     0.1921     0.3819
A_3     C     0.7803     0.3705     0.8807
A_3     C     0.1754     0.8034     0.5816
A_1     C     0.2787     0.503     0.0793
A_3     C     0.6387     0.6095     0.6439
A_3     C     0.5129     0.206     0.9901
A_2     C     0.8145     0.8178     0.0607
A_3     C     0.2873     0.2129     0.5856
A_0     C     0.171     0.0779     0.0792
A_0     C     0.0904     0.7737     0.2213
A_1     C     0.3073     0.0775     0.6104
A_3     C     0.8751     0.5413     0.3987
A_3     C     0.3898     0.216     0.3334
A_0     C     0.7659     0.7916     0.0655
A_3     C     0.2396     0.0619     0.8975
A_1     C     0.1434     0.5297     0.163
A_0     C     0.2859     0.0462     0.6686
A_2     C     0.2476     0.6001     0.9784
A_0     C     0.5063     0.1727     0.8676
A_2     C     0.594     0.0575     0.2346
A_0     C     0.9458     0.6849     0.5087
A_3     C     0.3306     0.1606     0.937
A_3     C     0.421     0.6995     0.3428
A_3     C     0.7334     0.2981     0.1913
A_2     C     0.1102     0.8878     0.5749
A_3     C     0.933     0.6387     0.2456
A_2     C     0.5874     0.1202     0.2742
A_0     C     0.4124     0.3496     0.6137
A_1     C     0.7771     0.4717     0.0146
A_3     C     0.6569     0.5975     0.3182
A_2     C     0.9441     0.2422     0.0695
A_3     C     0.577     0.7799     0.9912
A_2     C     0.3699     0.6559     0.6321
A_1     C     0.5073     0.7293     0.6265
A_2     C     0.0599     0.6074     0.2105
A_0     C     0.6066     0.717     0.8106
A_3     C     0.8496     0.1893     0.9685
A_0     C     0.3611     0.4758     0.3294
A_0     C     0.6491     0.2143     0.7259
A_3     C     0.104     0.133     0.044
A_2     C     0.7784     0.9307     0.8027
A_2     C     0.6912     0.6067     0.7553
A_1     C     0.0125     0.1887     0.1017
A_3     C     0.0942     0.282     0.0117
A_3     C     0.2706     0.9221     0.2169
A_1     C     0.2998     0.0822     0.8656
A_2     C     0.7349     0.7756     0.616
A_0     C     0.9337     0.4471     0.3917
A_0     C     0.058     0.7386     0.4309
A_3     C     0.9024     0.2155     0.1361
A_2     C     0.6694     0.4955     0.5622
A_0     C     0.8964     0.5033     0.8893
A_0     C     0.9296     0.2958     0.2149
A_1     C     0.0436     0.2903     0.9753
A_2     C     0.9417     0.3346     0.3907
A_2     C     0.9207     0.1455     0.1452
A_1     C     0.8943     0.2739     0.1729
A_0     C     0.1948     0.2147     0.0666
A_3     C     0.0602     0.848     0.3836
A_0     C     0.846     0.5429     0.8402
A_1     C     0.8283     0.4963     0.449
A_2     C     0.0625     0.4908     0.8137
A_3     C     0.228     0.8164     0.3999
A_2     C     0.2582     0.7764     0.809
A_2     C     0.776     0.4322     0.8023
A_1     C     0.2147     0.7297     0.5367
A_0     C     0.253     0.2896     0.517
A_3     C     0.2607     0.8754     0.5377
A_2     C     0.7469     0.2537     0.0737
A_0     C     0.247     0.9748     0.5492
A_1     C     0.0557     0.8024     0.6088
A_0     C     0.8836     0.1616     0.8731
A_2     C     0.2737     0.6957     0.4328
A_2     C     0.1971     0.898     0.2964
A_0     C     0.6952     0.5234     0.2249
A_1     C     0.3448     0.6509     0.9441
A_3     C     0.4507     0.4288     0.1501
A_1     C     0.5205     0.1061     0.6577
A_2     C     0.6565     0.399     0.4054
A_3     C     0.9348     0.8047     0.6694
A_2     C     0.5397     0.2794     0.8081
A_3     C     0.0763     0.5952     0.2362
A_0     C     0.8124     0.0149     0.9624
A_1     C     0.2073     0.5964     0.5797
A_3     C     0.032     0.4398     0.9027
A_2     C     0.3116     0.3354     0.7675
A_3     C     0.8966     0.5236     0.7477
A_1     C     0.8449     0.2649     0.6155
A_1     C     0.5395     0.168     0.4586
A_1     C     0.5396     0.2459     0.6738
A_2     C     0.341     0.8457     0.4084
A_0     C     0.0263     0.5439     0.0249
A_3     C     0.839     0.2126     0.6912
A_2     C     0.3121     0.7901     0.6865
A_3     C     0.6635     0.392     0.2097
A_2     C     0.0641     0.143     0.5001
A_2     C     0.4924     0.8574     0.8618
A_3     C     0.7749     0.6498     0.2394
A_2     C     0.9559     0.7565     0.9717
A_0     C     0.2412     0.7129     0.8663
A_0     C     0.7456     0.6599     0.3162
A_1     C     0.3653     0.9502     0.3378
A_0     C     0.2719     0.22     0.0937
A_1     C     0.9647     0.7128     0.6646
A_3     C     0.9326     0.3658     0.3533
A_0     C     0.2363     0.0208     0.2228
A_3     C     0.454     0.9115     0.5144
A_2     C     0.6417     0.2988     0.4528
A_1     C     0.6743     0.6315     0.4614
A_1     C     0.2612     0.646     0.6407
A_0     C     0.3478     0.2839     0.2866
A_0     C     0.4633     0.3631     0.5144
A_3     C     0.568     0.5237     0.8552
A_0     C     0.4739     0.2838     0.3701
A_0     C     0.6734     0.5845     0.7457
A_1     C     0.6031     0.5972     0.515
A_0     C     0.0736     0.3156     0.1937
A_3     C     0.9213     0.7808     0.381
A_2     C     0.7786     0.631     0.8403
A_0     C     0.7156     0.3217     0.7575
A_0     C     0.1634     0.2616     0.0275
A_3     C     0.5664     0.3941     0.2889
A_2     C     0.3183     0.9304     0.0659
A_1     C     0.0335     0.8138     0.6781
A_0     C     0.8326     0.7505     0.654
A_0     C     0.0745     0.1606     0.9199
A_3     C     0.8682     0.6669     0.3186
A_2     C     0.0303     0.061     0.6933
A_0     C     0.6101     0.2436     0.9836
A_3     C     0.543     0.442     0.715
A_3     C     0.8116     0.1798     0.0911
A_2     C     0.9022     0.9699     0.5935
A_2     C     0.5052     0.0751     0.7261
A_2     C     0.9917     0.912     0.4423
A_2     C     0.423     0.5119     0.0343
A_2     C     0.4407     0.1443     0.4253
A_1     C     0.579     0.7369     0.4645
A_1     C     0.7491     0.9731     0.3511
A_1     C     0.6709     0.9175     0.5722
A_3     C     0.9472     0.6878     0.6961
A_3     C     0.7684     0.8878     0.0488
A_0     C     0.7263     0.6813     0.0797
A_3     C     0.6185     0.9392     0.2908
A_2     C     0.8108     0.7107     0.5079
A_3     C     0.5718     0.672     0.0894
A_1     C     0.986     0.0268     0.8645
A_2     C     0.6174     0.9522     0.6414
A_2     C     0.2556     0.0495     0.7491
A_0     C     0.6086     0.0089     0.5565
A_1     C     0.2651     0.1495     0.5936
A_1     C     0.1956     0.6911     0.9114
A_0     C     0.4023     0.4662     0.1031
A_0     C     0.8356     0.9125     0.0536
A_2     C     0.3405     0.9009     0.493
A_1     C     0.3231     0.6525     0.6944
A_0     C     0.8662     0.6986     0.8635
A_1     C     0.5345     0.2346     0.9787
A_1     C     0.5192     0.6327     0.9584
A_0     C     0.7475     0.5873     0.8554
A_0     C     0.8577     0.2469     0.1725
A_1     C     0.3274     0.1369     0.5214
A_1     C     0.6253     0.8718     0.5775
A_0     C     0.6327     0.7561     0.4062
A_2     C     0.662     0.3665     0.8358
A_2     C     0.7757     0.7762     0.2082
A_3     C     0.2667     0.6701     0.5447
A_0     C     0.8982     0.7738     0.1404
A_0     C     0.2336     0.9994     0.6662
A_0     C     0.8221     0.4301     0.3251
A_1     C     0.4275     0.958     0.4606
A_1     C     0.1666     0.1615     0.751
A_2     C     0.0767     0.8429     0.7733
A_1     C     0.8929     0.9156     0.504
A_3     C     0.7229     0.9908     0.1694
A_1     C     0.8903     0.2388     0.1149
A_2     C     0.7013     0.3834     0.3842
A_0     C     0.711     0.1236     0.307
A_2     C     0.4735     0.1572     0.9575
A_1     C     0.1235     0.479     0.5407
A_1     C     0.3555     0.9063     0.3428
A_3     C     0.7619     0.6497     0.8456
A_2     C     0.9953     0.4011     0.7919
A_2     C     0.5782     0.7443     0.4219
A_1     C     0.9433     0.3875     0.0564
A_1     C     0.0727     0.4002     0.106
A_1     C     0.4492     0.5732     0.5523
A_1     C     0.1179     0.0425     0.2963
A_2     C     0.7103     0.1447     0.226
A_0     C     0.2445     0.7872     0.8866
A_1     C     0.4296     0.8208     0.3745
A_0     C     0.3449     0.7266     0.5503
A_1     C     0.0859     0.5189     0.5711
A_0     C     0.1282     0.4668     0.3576
A_3     C     0.2597     0.3151     0.2988
A_0     C     0.2468     0.2819     0.2531
A_0     C     0.9393     0.2543     0.0546
A_2     C     0.7642     0.6995     0.6843
A_0     C     0.146     0.9967     0.5657
A_2     C     0.5091     0.9805     0.4441
A_1     C     0.8893     0.4886     0.6647
A_2     C     0.4126     0.6374     0.0726
A_2     C     0.4907     0.5758     0.1739
A_2     C     0.654     0.8083     0.9464
A_0     C     0.5848     0.697     0.4627
A_1     C     0.9609     0.1664     0.4275
A_3     C     0.4018     0.2234     0.1632
A_3     C     0.052     0.9709     0.8962
A_0     C     0.7709     0.1444     0.1105
A_3     C     0.6397     0.0104     0.6152
A_0     C     0.1155     0.9824     0.5502
A_0     C     0.3633     0.3087     0.7394
A_1     C     0.5668     0.8915     0.9645
A_3     C     0.8377     0.2512     0.9363
A_1     C     0.3409     0.9331     0.9717
A_0     C     0.9486     0.3473     0.7753
A_0     C     0.5227     0.2447     0.5619
A_3     C     0.1219     0.4874     0.0431
A_3     C     0.7644     0.8989     0.7844
A_1     C     0.9272     0.9363     0.9412
A_1     C     0.1343     0.7902     0.2554
A_2     C     0.7313     0.5104     0.4947
A_0     C     0.1538     0.9343     0.6219
A_2     C     0.5894     0.5512     0.3682
A_0     C     0.0199     0.6689     0.8146
A_1     C     0.993     0.2083     0.9153
A_2     C     0.9765     0.3259     0.3147
A_0     C     0.4991     0.0029     0.5257
