MAT-2

loop_
_symmetry_equiv_pos_as_xyz
  x,y,z
_cell_length_a          44.4738
_cell_length_b          36.5842
_cell_length_c          40.3943
_cell_angle_alpha       90.0000
_cell_angle_beta        90.0000
_cell_angle_gamma       90.0000
loop_
_atom_site_label
_atom_site_type_symbol
_atom_site_fract_x
_atom_site_fract_y
_atom_site_fract_z
A_2     C     0.8947     0.7133     0.1335
A_0     C     0.0984     0.6553     0.3669
A_3     C     0.5544     0.8341     0.7435
A_2     C     0.2151     0.7424     0.4325
A_1     C     0.2422     0.3013     0.5549
A_1     C     0.8514     0.3918     0.8017
A_1     C     0.7508     0.2098     0.5403
A_0     C     0.1759     0.9655     0.1094
A_0     C     0.2199     0.4775     0.5929
A_2     C     0.8823     0.3132     0.1848
A_3     C     0.38     0.5479     0.7203
A_2     C     0.0292     0.2035     0.2803
A_1     C     0.4981     0.661     0.3899
A_3     C     0.498     0.6414     0.7999
A_2     C     0.9553     0.0949     0.9492
A_0     C     0.0695     0.5854     0.5193
A_0     C     0.8901     0.6079     0.4527
A_2     C     0.0166     0.198     0.7697
A_2     C     0.3205     0.9124     0.9116
A_0     C     0.7958     0.3529     0.7525
A_1     C     0.2189     0.1101     0.6788
A_2     C     0.204     0.2112     0.9545
A_2     C     0.1867     0.8487     0.8001
A_3     C     0.9014     0.0104     0.1268
A_2     C     0.519     0.0741     0.389
A_2     C     0.2347     0.2199     0.4338
A_3     C     0.8455     0.6021     0.7831
A_0     C     0.9887     0.515     0.2768
A_1     C     0.7601     0.5353     0.4445
A_2     C     0.4883     0.4684     0.7151
A_3     C     0.336     0.9345     0.319
A_1     C     0.2552     0.0397     0.2223
A_0     C     0.8783     0.7213     0.6684
A_1     C     0.6787     0.9676     0.0815
A_0     C     0.1479     0.6555     0.9141
A_0     C     0.8627     0.3341     0.4251
A_3     C     0.4542     0.9444     0.1712
A_2     C     0.2532     0.3646     0.3528
A_3     C     0.6441     0.3927     0.1965
A_3     C     0.9231     0.5053     0.2676
A_2     C     0.5279     0.5204     0.0107
A_3     C     0.1265     0.4299     0.6252
A_2     C     0.943     0.7774     0.8718
A_3     C     0.611     0.8999     0.4333
A_3     C     0.197     0.7387     0.7595
A_0     C     0.6992     0.1421     0.2434
A_2     C     0.821     0.2282     0.3883
A_3     C     0.3674     0.7907     0.1535
A_1     C     0.151     0.8369     0.032
A_2     C     0.4941     0.27     0.4959
A_2     C     0.0063     0.2011     0.7265
A_3     C     0.9913     0.8552     0.0557
A_1     C     0.9422     0.4747     0.825
A_0     C     0.1574     0.1438     0.7304
A_3     C     0.1689     0.0472     0.8943
A_2     C     0.8732     0.213     0.456
A_1     C     0.8853     0.2942     0.6104
A_3     C     0.0149     0.2935     0.1845
A_2     C     0.673     0.504     0.5433
A_3     C     0.0111     0.8537     0.0124
A_1     C     0.5236     0.3067     0.3583
A_2     C     0.5619     0.7877     0.7276
A_1     C     0.5522     0.5743     0.3333
A_2     C     0.0136     0.2043     0.2603
A_1     C     0.7064     0.4742     0.8515
A_2     C     0.2525     0.7418     0.7853
A_0     C     0.1739     0.584     0.9574
A_3     C     0.3228     0.0501     0.7073
A_3     C     0.2527     0.0304     0.1825
A_1     C     0.411     0.7668     0.1598
A_0     C     0.9672     0.6157     0.315
A_0     C     0.1314     0.8692     0.8614
A_1     C     0.3285     0.4759     0.4348
A_3     C     0.6272     0.2464     0.1966
A_3     C     0.3882     0.6691     0.531
A_0     C     0.097     0.0636     0.446
A_1     C     0.3785     0.627     0.9665
A_3     C     0.5624     0.8222     0.5397
A_2     C     0.2365     0.4281     0.9538
A_1     C     0.75     0.8186     0.2728
A_0     C     0.921     0.8428     0.699
A_1     C     0.1305     0.2832     0.7138
A_1     C     0.0021     0.2932     0.9254
A_2     C     0.3092     0.3671     0.2512
A_2     C     0.2213     0.2891     0.1682
A_3     C     0.907     0.6248     0.4162
A_1     C     0.5954     0.1548     0.5524
A_3     C     0.3981     0.7945     0.9041
A_2     C     0.7848     0.1119     0.3648
A_3     C     0.5287     0.6678     0.9631
A_3     C     0.1293     0.5685     0.1191
A_0     C     0.0878     0.3449     0.7646
A_2     C     0.0137     0.7624     0.0893
A_0     C     0.7644     0.284     0.4946
A_0     C     0.3001     0.7409     0.8779
A_0     C     0.3412     0.6967     0.4101
A_3     C     0.4953     0.2629     0.6777
A_3     C     0.3919     0.8408     0.0637
A_3     C     0.3256     0.0864     0.4919
A_3     C     0.4798     0.6412     0.3895
A_0     C     0.0724     0.3077     0.5862
A_0     C     0.6631     0.3392     0.522
A_3     C     0.7006     0.7044     0.0999
A_2     C     0.5199     0.7269     0.1797
A_3     C     0.203     0.2026     0.58
A_3     C     0.2889     0.3827     0.8737
A_3     C     0.7928     0.8437     0.1586
A_0     C     0.8823     0.5149     0.856
A_0     C     0.7948     0.1805     0.3205
A_0     C     0.2706     0.4515     0.8931
A_1     C     0.9065     0.294     0.1252
A_2     C     0.687     0.4599     0.2381
A_3     C     0.6177     0.2326     0.7855
A_0     C     0.6745     0.5208     0.4278
A_0     C     0.2097     0.739     0.5811
A_3     C     0.0684     0.266     0.8937
A_0     C     0.2106     0.0482     0.9927
A_1     C     0.5298     0.9142     0.1892
A_2     C     0.0087     0.4842     0.7518
A_3     C     0.365     0.4736     0.1824
A_0     C     0.2231     0.3486     0.9969
A_3     C     0.2559     0.2214     0.2735
A_3     C     0.249     0.9885     0.4555
A_0     C     0.4711     0.6298     0.1544
A_0     C     0.7504     0.2173     0.1776
A_0     C     0.8682     0.2546     0.5789
A_3     C     0.2877     0.9189     0.2152
A_1     C     0.9188     0.1448     0.5927
A_2     C     0.7244     0.0978     0.025
A_2     C     0.472     0.9367     0.5363
A_2     C     0.7893     0.9757     0.7859
A_1     C     0.669     0.5967     0.6484
A_2     C     0.2713     0.5189     0.8789
A_3     C     0.4245     0.1764     0.1664
A_2     C     0.7723     0.0946     0.4969
A_3     C     0.3384     0.3969     0.9817
A_2     C     0.6506     0.926     0.0793
A_2     C     0.4835     0.4916     0.3056
A_1     C     0.8811     0.3901     0.6687
A_1     C     0.3355     0.3919     0.3487
A_3     C     0.9722     0.7156     0.2963
A_2     C     0.7484     0.6281     0.1419
A_2     C     0.3311     0.9476     0.6035
A_2     C     0.0515     0.6898     0.9715
A_2     C     0.7479     0.8666     0.7805
A_0     C     0.034     0.6383     0.9269
A_3     C     0.6548     0.1367     0.2821
A_1     C     0.8541     0.5738     0.568
A_0     C     0.0141     0.7316     0.204
A_3     C     0.6341     0.3073     0.1202
A_3     C     0.5858     0.2888     0.45
A_0     C     0.7474     0.3486     0.5197
A_0     C     0.5551     0.6315     0.7424
A_1     C     0.0377     0.9509     0.0962
A_0     C     0.5339     0.871     0.4819
A_0     C     0.8173     0.7617     0.8924
A_3     C     0.4751     0.3195     0.9797
A_1     C     0.8314     0.454     0.2177
A_1     C     0.5732     0.8134     0.7098
A_2     C     0.8728     0.3308     0.4759
A_1     C     0.3657     0.6562     0.267
A_3     C     0.4347     0.8817     0.0719
A_3     C     0.1848     0.3887     0.521
A_1     C     0.6363     0.7374     0.1575
A_2     C     0.4078     0.0271     0.6741
A_0     C     0.6155     0.5833     0.6335
A_1     C     0.4322     0.2583     0.0207
A_0     C     0.9726     0.6842     0.1005
A_1     C     0.0247     0.8478     0.2807
A_1     C     0.4434     0.8067     0.9398
A_3     C     0.1314     0.5932     0.68
A_1     C     0.7169     0.5861     0.8992
A_0     C     0.998     0.4897     0.9375
A_2     C     0.6438     0.039     0.6883
A_1     C     0.1826     0.5945     0.2786
A_1     C     0.6909     0.2795     0.1679
A_2     C     0.3498     0.1593     0.439
A_0     C     0.6688     0.049     0.0301
A_1     C     0.7825     0.6433     0.7282
A_0     C     0.0682     0.9391     0.9847
A_1     C     0.5235     0.0469     0.0202
A_3     C     0.1489     0.1925     0.331
A_2     C     0.2871     0.8307     0.0701
A_3     C     0.5327     0.8476     0.9044
A_2     C     0.1439     0.7871     0.4823
A_1     C     0.1305     0.8848     0.56
A_3     C     0.3782     0.7135     0.5524
A_0     C     0.7929     0.6653     0.3495
A_3     C     0.5317     0.6178     0.9794
A_1     C     0.1866     0.2523     0.665
A_0     C     0.9397     0.861     0.4782
A_3     C     0.1156     0.8427     0.1483
A_0     C     0.5024     0.4677     0.8165
A_3     C     0.1372     0.156     0.7042
A_0     C     0.8962     0.1671     0.6767
A_1     C     0.7145     0.3977     0.7707
A_0     C     0.3411     0.3707     0.1627
A_0     C     0.2701     0.5411     0.0916
A_3     C     0.4698     0.3648     0.8182
A_0     C     0.0623     0.5013     0.0037
A_0     C     0.2405     0.1925     0.5401
A_3     C     0.2056     0.9849     0.4936
A_1     C     0.136     0.1644     0.5484
A_2     C     0.2143     0.438     0.8224
A_0     C     0.4023     0.9475     0.2282
A_2     C     0.2841     0.6843     0.5683
A_2     C     0.6726     0.8288     0.2086
A_3     C     0.7303     0.8796     0.2716
A_2     C     0.7155     0.3199     0.4206
A_2     C     0.8733     0.0159     0.0869
A_3     C     0.7309     0.1552     0.8554
A_3     C     0.5448     0.0869     0.4206
A_1     C     0.9553     0.1648     0.8257
A_1     C     0.0228     0.2619     0.7459
A_3     C     0.9395     0.7757     0.2887
A_0     C     0.6641     0.9869     0.9625
A_0     C     0.9232     0.34     0.0673
A_2     C     0.229     0.9385     0.0799
A_2     C     0.8537     0.4422     0.7395
A_1     C     0.8489     0.1083     0.0392
A_0     C     0.8188     0.6464     0.893
A_1     C     0.1284     0.2974     0.5189
A_3     C     0.1153     0.0348     0.6923
A_0     C     0.239     0.0095     0.6499
A_2     C     0.021     0.4803     0.2834
A_1     C     0.4665     0.0024     0.4719
A_0     C     0.5522     0.2149     0.648
A_3     C     0.4538     0.1911     0.2433
A_3     C     0.6616     0.2643     0.4504
A_1     C     0.545     0.6858     0.9193
A_3     C     0.2535     0.3631     0.3267
A_2     C     0.1236     0.7691     0.3027
A_1     C     0.0909     0.5227     0.3234
A_0     C     0.3012     0.4214     0.5422
A_3     C     0.8767     0.3884     0.0406
A_3     C     0.7324     0.5216     0.5163
A_2     C     0.1227     0.7888     0.6926
A_3     C     0.3165     0.2138     0.2191
A_3     C     0.4958     0.4089     0.7861
A_3     C     0.2557     0.1868     0.7874
A_0     C     0.1733     0.6299     0.1348
A_3     C     0.4949     0.589     0.779
A_1     C     0.4773     0.2898     0.3782
A_0     C     0.5228     0.5273     0.259
A_3     C     0.5762     0.3499     0.6325
A_0     C     0.0687     0.1322     0.8968
A_2     C     0.651     0.2917     0.0769
A_3     C     0.3414     0.1036     0.209
A_0     C     0.6815     0.1171     0.0999
A_3     C     0.3634     0.7898     0.1785
A_0     C     0.0148     0.5663     0.8217
A_1     C     0.1517     0.5111     0.2614
A_0     C     0.4961     0.806     0.6579
A_1     C     0.4282     0.1359     0.0123
A_3     C     0.4095     0.8046     0.4933
A_0     C     0.1799     0.3083     0.7838
A_3     C     0.5739     0.498     0.6714
A_2     C     0.2909     0.431     0.7096
A_3     C     0.2704     0.8457     0.6979
A_1     C     0.5409     0.4276     0.8159
A_0     C     0.846     0.7932     0.1227
A_2     C     0.125     0.0115     0.0071
A_2     C     0.7184     0.8912     0.1994
A_3     C     0.6158     0.2664     0.7861
A_2     C     0.1871     0.7255     0.4313
A_3     C     0.8236     0.6582     0.8012
A_2     C     0.8747     0.3369     0.0652
A_3     C     0.5519     0.1203     0.9535
A_0     C     0.7457     0.6683     0.6879
A_2     C     0.2106     0.8023     0.398
A_0     C     0.2679     0.9542     0.5016
A_3     C     0.501     0.0304     0.7125
A_1     C     0.3418     0.4993     0.9621
A_2     C     0.9971     0.6217     0.5624
A_0     C     0.9723     0.9183     0.146
A_3     C     0.6259     0.2785     0.7721
A_1     C     0.2849     0.8181     0.1878
A_2     C     0.3898     0.6962     0.6582
A_3     C     0.4504     0.1599     0.4754
A_0     C     0.9512     0.7092     0.8871
A_0     C     0.5401     0.3744     0.5406
A_0     C     0.9993     0.6591     0.3927
A_1     C     0.0416     0.3612     0.0614
A_1     C     0.0522     0.9341     0.8468
A_0     C     0.3663     0.6921     0.3706
A_0     C     0.1324     0.4018     0.9269
A_1     C     0.2293     0.0922     0.8597
A_1     C     0.8154     0.4358     0.6436
A_2     C     0.3104     0.4541     0.177
A_1     C     0.4059     0.8881     0.9537
A_0     C     0.9976     0.7037     0.9542
A_1     C     0.7156     0.9184     0.2927
A_1     C     0.2445     0.3892     0.7197
A_1     C     0.7957     0.9193     0.7654
A_0     C     0.9     0.6188     0.6198
A_3     C     0.5865     0.6382     0.8886
A_0     C     0.8624     0.1327     0.4393
A_1     C     0.3032     0.2964     0.8883
A_3     C     0.0306     0.8798     0.5995
A_0     C     0.006     0.4233     0.0967
A_2     C     0.2441     0.1842     0.6491
A_0     C     0.9161     0.8332     0.0928
A_3     C     0.3362     0.4074     0.186
A_3     C     0.8614     0.3972     0.2365
A_3     C     0.5671     0.5266     0.3342
A_1     C     0.3645     0.91     0.4479
A_0     C     0.0331     0.5638     0.2564
A_3     C     0.5534     0.2172     0.464
A_1     C     0.4897     0.1235     0.7375
A_1     C     0.0526     0.4068     0.1267
A_2     C     0.2678     0.1817     0.4036
A_3     C     0.2041     0.9073     0.15
A_1     C     0.2074     0.4988     0.0822
A_1     C     0.5409     0.0896     0.9574
A_2     C     0.5853     0.9958     0.5832
A_0     C     0.7601     0.065     0.5157
A_3     C     0.4912     0.6421     0.7821
A_3     C     0.1546     0.5156     0.7306
A_0     C     0.4919     0.5117     0.8631
A_0     C     0.3519     0.6223     0.0294
A_3     C     0.1321     0.6858     0.6732
A_1     C     0.4792     0.8425     0.3028
A_0     C     0.9522     0.3904     0.7774
A_1     C     0.6943     0.1221     0.4905
A_0     C     0.9319     0.7178     0.1856
A_3     C     0.3438     0.9993     0.4587
A_2     C     0.0729     0.8787     0.3944
A_2     C     0.7273     0.832     0.4108
A_1     C     0.4391     0.721     0.1737
A_3     C     0.3215     0.3839     0.1138
A_3     C     0.2523     0.3405     0.5907
A_0     C     0.7154     0.5685     0.9183
A_3     C     0.5596     0.0649     0.4101
A_2     C     0.507     0.5904     0.9624
A_2     C     0.0677     0.1101     0.3994
A_1     C     0.0944     0.2484     0.4384
A_2     C     0.1083     0.4062     0.9607
A_0     C     0.2856     0.4916     0.7594
A_0     C     0.2495     0.5059     0.9484
A_0     C     0.9031     0.243     0.0204
A_0     C     0.1373     0.8524     0.9326
A_3     C     0.4306     0.5524     0.8133
A_2     C     0.0096     0.927     0.4413
A_3     C     0.1304     0.5719     0.1806
A_2     C     0.2486     0.5267     0.6832
A_2     C     0.5729     0.4395     0.8495
A_2     C     0.8945     0.574     0.1423
A_3     C     0.079     0.5483     0.4595
A_3     C     0.3676     0.0134     0.3478
A_0     C     0.9591     0.3047     0.7925
A_2     C     0.3368     0.6845     0.3842
A_3     C     0.6197     0.3251     0.266
A_2     C     0.9744     0.886     0.0231
A_3     C     0.726     0.7339     0.8663
A_1     C     0.4873     0.3796     0.2421
A_3     C     0.1033     0.8227     0.1502
A_2     C     0.0232     0.9099     0.8378
A_2     C     0.4702     0.3355     0.6236
A_2     C     0.5734     0.6542     0.2832
A_0     C     0.4687     0.251     0.4623
A_3     C     0.2461     0.5572     0.8665
A_1     C     0.3554     0.7324     0.3451
A_2     C     0.1217     0.5528     0.7588
A_0     C     0.9913     0.5805     0.1987
A_0     C     0.568     0.0727     0.0235
A_2     C     0.4684     0.672     0.9402
A_2     C     0.6814     0.2476     0.4908
A_1     C     0.1959     0.6567     0.1476
A_3     C     0.0538     0.2823     0.3483
A_1     C     0.8702     0.4097     0.9287
A_3     C     0.8523     0.3767     0.7064
A_3     C     0.6401     0.1525     0.8283
A_2     C     0.453     0.6456     0.3203
A_2     C     0.6926     0.5953     0.2569
A_0     C     0.8856     0.9096     0.9342
A_2     C     0.8014     0.7583     0.0168
A_0     C     0.2311     0.5875     0.13
A_3     C     0.1935     0.9996     0.1963
A_3     C     0.4056     0.6357     0.507
A_1     C     0.8031     0.3716     0.7417
A_3     C     0.4233     0.3173     0.394
A_3     C     0.839     0.5306     0.3575
A_1     C     0.5357     0.6481     0.7805
A_3     C     0.7049     0.5916     0.5666
A_1     C     0.0868     0.7072     0.2748
A_3     C     0.2432     0.8671     0.3155
A_1     C     0.8341     0.057     0.7414
A_1     C     0.2712     0.3305     0.9011
A_3     C     0.3986     0.9891     0.1081
A_1     C     0.1129     0.7752     0.5657
A_1     C     0.2699     0.0594     0.1966
A_2     C     0.4571     0.8657     0.176
A_3     C     0.9165     0.7261     0.8533
A_1     C     0.3761     0.0794     0.3872
A_0     C     0.9095     0.5394     0.026
A_1     C     0.2866     0.8157     0.9201
A_0     C     0.6191     0.7029     0.1019
A_3     C     0.5725     0.3204     0.5528
A_0     C     0.1128     0.4452     0.2504
A_1     C     0.0242     0.8814     0.2599
A_3     C     0.4014     0.3648     0.6795
A_3     C     0.0127     0.7335     0.5372
A_0     C     0.0321     0.0265     0.7429
A_1     C     0.273     0.3262     0.4109
A_3     C     0.1344     0.5406     0.6904
A_3     C     0.8637     0.5814     0.4956
A_2     C     0.9449     0.7276     0.6668
A_2     C     0.373     0.9621     0.0555
A_3     C     0.1462     0.3509     0.8589
A_3     C     0.7233     0.629     0.4444
A_2     C     0.9522     0.4763     0.6993
A_2     C     0.5928     0.2461     0.707
A_1     C     0.0541     0.791     0.8748
A_1     C     0.739     0.8056     0.7598
A_3     C     0.521     0.9588     0.9513
A_1     C     0.324     0.7099     0.3683
A_1     C     0.1874     0.3401     0.8126
A_0     C     0.644     0.357     0.8728
A_3     C     0.1939     0.9961     0.9935
A_2     C     0.7822     0.7408     0.9287
A_3     C     0.9436     0.6292     0.8709
A_1     C     0.571     0.6716     0.3312
A_2     C     0.579     0.2762     0.9494
A_2     C     0.1909     0.3573     0.917
A_1     C     0.715     0.9869     0.3349
A_1     C     0.2303     0.0339     0.8382
A_3     C     0.6792     0.2589     0.8117
A_3     C     0.139     0.7872     0.7968
A_2     C     0.7933     0.0843     0.2936
A_0     C     0.6743     0.9585     0.5128
A_1     C     0.9489     0.7519     0.2199
A_2     C     0.3648     0.0884     0.4437
A_0     C     0.4943     0.7659     0.1095
A_2     C     0.7285     0.2489     0.1418
A_0     C     0.5152     0.3485     0.586
A_1     C     0.2115     0.872     0.6549
A_0     C     0.8934     0.109     0.9458
A_2     C     0.9324     0.4947     0.0523
A_2     C     0.1216     0.8212     0.4384
A_1     C     0.7496     0.3221     0.3303
A_0     C     0.3857     0.9765     0.4104
A_3     C     0.342     0.1719     0.0828
A_3     C     0.9601     0.1888     0.9908
A_3     C     0.0651     0.3302     0.6908
A_0     C     0.3826     0.7072     0.0222
A_2     C     0.226     0.2397     0.5073
A_1     C     0.6566     0.3555     0.3555
A_0     C     0.9388     0.1567     0.3617
A_1     C     0.8266     0.3939     0.2433
A_0     C     0.343     0.808     0.2383
A_0     C     0.8801     0.4     0.175
A_2     C     0.3732     0.8903     0.4023
A_0     C     0.777     0.2695     0.2515
A_1     C     0.9606     0.7625     0.975
A_0     C     0.0243     0.4823     0.1039
A_3     C     0.9114     0.9344     0.3169
A_2     C     0.2495     0.1449     0.7151
A_2     C     0.3013     0.5172     0.2015
A_3     C     0.728     0.6333     0.4044
A_1     C     0.7325     0.165     0.8395
A_0     C     0.041     0.8374     0.4434
A_1     C     0.0092     0.8903     0.1036
A_2     C     0.1655     0.3709     0.6632
A_1     C     0.2543     0.9157     0.4852
A_1     C     0.5537     0.9784     0.6228
A_1     C     0.44     0.2781     0.113
A_3     C     0.6999     0.6348     0.2671
A_2     C     0.8104     0.298     0.6054
A_2     C     0.1278     0.367     0.267
A_3     C     0.9366     0.3446     0.2452
A_3     C     0.8998     0.4109     0.3577
A_0     C     0.9044     0.5617     0.9419
A_2     C     0.7042     0.3929     0.182
A_2     C     0.5431     0.6833     0.5715
A_1     C     0.9123     0.2156     0.1172
A_2     C     0.2913     0.8723     0.5052
A_2     C     0.0823     0.7053     0.6671
A_2     C     0.9771     0.3006     0.8311
A_3     C     0.7204     0.6096     0.3124
A_1     C     0.1711     0.4069     0.846
A_0     C     0.0928     0.1554     0.0344
A_1     C     0.1851     0.9363     0.572
A_1     C     0.5929     0.1768     0.8895
A_0     C     0.8485     0.2333     0.0581
A_0     C     0.2578     0.6868     0.0162
A_0     C     0.8683     0.7508     0.0573
A_3     C     0.4866     0.2322     0.0251
A_0     C     0.0752     0.8151     0.9984
A_2     C     0.6082     0.5468     0.1151
A_0     C     0.421     0.3401     0.3351
A_0     C     0.6546     0.7455     0.5908
A_2     C     0.7594     0.6347     0.2726
A_3     C     0.0212     0.5946     0.2826
A_3     C     0.5965     0.9263     0.9529
A_0     C     0.5425     0.113     0.6951
A_0     C     0.6572     0.3959     0.5241
A_0     C     0.7997     0.1755     0.9817
A_1     C     0.8636     0.6138     0.6519
A_3     C     0.5191     0.4554     0.428
A_1     C     0.167     0.7409     0.795
A_1     C     0.8201     0.5055     0.335
A_0     C     0.9697     0.5184     0.904
A_0     C     0.8937     0.1532     0.6536
A_1     C     0.1535     0.4573     0.5536
A_2     C     0.7624     0.3671     0.0018
A_0     C     0.9515     0.8245     0.867
A_2     C     0.1704     0.0658     0.3527
A_0     C     0.0328     0.6158     0.0309
A_2     C     0.7717     0.0662     0.6794
A_3     C     0.9238     0.4154     0.0142
A_2     C     0.7138     0.8886     0.9566
A_0     C     0.4894     0.6699     0.0144
A_2     C     0.082     0.0137     0.7588
A_2     C     0.2991     0.7076     0.5775
A_1     C     0.1264     0.5633     0.7893
A_3     C     0.1648     0.1187     0.5059
A_3     C     0.5579     0.5713     0.3613
A_1     C     0.1229     0.6668     0.121
A_2     C     0.5355     0.7288     0.5499
A_0     C     0.6174     0.2545     0.3331
A_2     C     0.6932     0.4323     0.2942
A_3     C     0.2972     0.9271     0.5631
A_1     C     0.775     0.1477     0.7241
A_2     C     0.249     0.4121     0.9265
A_0     C     0.126     0.4978     0.6461
A_0     C     0.5094     0.6396     0.8667
A_2     C     0.8362     0.8454     0.8368
A_1     C     0.1462     0.234     0.4529
A_0     C     0.8848     0.3624     0.3965
A_2     C     0.0421     0.5076     0.2972
A_2     C     0.3242     0.8095     0.3107
A_3     C     0.2717     0.9458     0.9557
A_3     C     0.3346     0.1552     0.5475
A_0     C     0.811     0.0104     0.8574
A_0     C     0.6592     0.0888     0.8833
A_2     C     0.6722     0.61     0.3555
A_2     C     0.9752     0.5333     0.7788
A_1     C     0.7562     0.3992     0.1654
A_0     C     0.7826     0.0785     0.5511
A_2     C     0.7128     0.6858     0.6104
A_1     C     0.9324     0.7816     0.9339
A_3     C     0.2308     0.9217     0.4119
A_1     C     0.8326     0.9038     0.476
A_1     C     0.3405     0.9441     0.8453
A_0     C     0.1463     0.1834     0.4623
A_3     C     0.1909     0.9342     0.6205
A_3     C     0.9835     0.6365     0.5678
A_3     C     0.7987     0.0849     0.3535
A_2     C     0.4742     0.2911     0.5295
A_2     C     0.6563     0.8639     0.9486
A_3     C     0.4291     0.351     0.4332
A_1     C     0.9699     0.2091     0.985
A_3     C     0.4869     0.7875     0.9657
A_0     C     0.9722     0.5826     0.2521
A_3     C     0.9358     0.0027     0.0901
A_2     C     0.1158     0.8054     0.0933
A_2     C     0.9396     0.1317     0.2061
A_3     C     0.4741     0.0568     0.3176
A_0     C     0.6713     0.632     0.2939
A_2     C     0.9827     0.7439     0.9152
A_0     C     0.739     0.9615     0.2745
A_0     C     0.7618     0.4379     0.1253
A_3     C     0.6915     0.9505     0.1973
A_3     C     0.5482     0.4398     0.433
A_3     C     0.0513     0.822     0.0472
A_1     C     0.138     0.9405     0.2041
A_1     C     0.3982     0.3024     0.5132
A_1     C     0.8212     0.4589     0.8445
A_3     C     0.2798     0.6138     0.5143
A_0     C     0.5356     0.8584     0.0018
A_3     C     0.0994     0.5458     0.5742
A_3     C     0.9608     0.6569     0.3686
A_3     C     0.5997     0.6648     0.2346
A_0     C     0.2712     0.2979     0.4782
A_2     C     0.9896     0.107     0.1039
A_2     C     0.7338     0.66     0.5469
A_3     C     0.7175     0.3011     0.2942
A_0     C     0.7661     0.5406     0.2388
A_0     C     0.535     0.2205     0.5622
A_3     C     0.7953     0.0099     0.5954
A_3     C     0.387     0.2509     0.3863
A_1     C     0.3464     0.5478     0.9637
A_0     C     0.0681     0.8642     0.4632
A_0     C     0.3008     0.8327     0.6282
A_2     C     0.4038     0.588     0.0283
A_0     C     0.6371     0.7951     0.5996
A_3     C     0.8867     0.2613     0.3352
A_2     C     0.6588     0.0889     0.273
A_0     C     0.4857     0.2369     0.215
A_0     C     0.5541     0.1755     0.9521
A_3     C     0.7027     0.9122     0.0387
A_3     C     0.9642     0.1885     0.307
A_1     C     0.5808     0.1039     0.6052
A_1     C     0.8951     0.0517     0.9683
A_1     C     0.4499     0.6224     0.108
A_2     C     0.3524     0.8257     0.5743
A_2     C     0.8704     0.5725     0.5298
A_3     C     0.4773     0.1205     0.7401
A_0     C     0.2088     0.4267     0.4832
A_0     C     0.998     0.6124     0.9899
A_3     C     0.8337     0.8152     0.2257
A_0     C     0.2036     0.7739     0.0677
A_0     C     0.7941     0.0489     0.788
A_3     C     0.5012     0.9006     0.523
A_1     C     0.9749     0.3019     0.3452
A_3     C     0.3884     0.1062     0.2355
A_1     C     0.9456     0.6134     0.4832
A_3     C     0.8448     0.9421     0.64
A_3     C     0.7355     0.1251     0.3198
A_3     C     0.6096     0.6354     0.3269
A_0     C     0.5082     0.4801     0.5458
A_3     C     0.3992     0.7529     0.7766
A_3     C     0.4859     0.4524     0.8063
A_2     C     0.8088     0.8142     0.3769
A_0     C     0.3104     0.1809     0.6734
A_1     C     0.1147     0.9958     0.019
A_2     C     0.5773     0.8748     0.8324
A_3     C     0.6948     0.0925     0.4404
A_0     C     0.4145     0.0735     0.9009
A_1     C     0.3971     0.6196     0.113
A_3     C     0.6869     0.9947     0.6732
A_1     C     0.2186     0.6693     0.0509
A_0     C     0.8991     0.6186     0.6801
A_0     C     0.788     0.3738     0.4377
A_0     C     0.4051     0.9163     0.1137
A_0     C     0.6294     0.7757     0.8428
A_3     C     0.4441     0.9819     0.6042
A_0     C     0.8501     0.9242     0.5147
A_0     C     0.4663     0.5353     0.9282
A_2     C     0.545     0.6166     0.9352
A_3     C     0.3143     0.1369     0.775
A_0     C     0.4195     0.1893     0.1536
A_2     C     0.065     0.4832     0.9337
A_1     C     0.0931     0.6519     0.5957
A_3     C     0.0066     0.8433     0.0504
A_3     C     0.2144     0.364     0.9942
A_2     C     0.1511     0.0316     0.3286
A_0     C     0.9731     0.1002     0.4986
A_1     C     0.6932     0.7915     0.0025
A_2     C     0.0678     0.2537     0.9813
A_1     C     0.7121     0.3999     0.8951
A_3     C     0.701     0.1219     0.5593
A_0     C     0.5427     0.2473     0.1482
A_2     C     0.3639     0.1786     0.7273
A_0     C     0.317     0.8042     0.1352
A_3     C     0.4005     0.5412     0.7215
A_0     C     0.6108     0.4979     0.8376
A_3     C     0.4743     0.1697     0.6364
A_3     C     0.3259     0.0385     0.7899
A_0     C     0.6864     0.9516     0.3232
A_3     C     0.2062     0.469     0.4331
A_1     C     0.052     0.0953     0.4022
A_3     C     0.7089     0.5623     0.8894
A_0     C     0.6436     0.6421     0.4942
A_2     C     0.5585     0.2607     0.8984
A_0     C     0.7695     0.3779     0.232
A_1     C     0.1946     0.5615     0.8507
A_1     C     0.4102     0.1345     0.6632
A_1     C     0.5479     0.7854     0.7771
A_3     C     0.9092     0.2517     0.6539
A_0     C     0.967     0.3062     0.9813
A_2     C     0.7666     0.2305     0.241
A_1     C     0.7606     0.2403     0.431
A_3     C     0.8585     0.1635     0.2744
A_1     C     0.6653     0.2669     0.9445
A_3     C     0.2157     0.942     0.5789
A_3     C     0.6767     0.9812     0.1885
A_3     C     0.9292     0.3189     0.1809
A_3     C     0.3965     0.6196     0.6605
A_2     C     0.2806     0.1722     0.8144
A_2     C     0.8825     0.804     0.6766
A_1     C     0.7735     0.5146     0.6175
A_1     C     0.5756     0.3006     0.2699
A_3     C     0.2041     0.096     0.6979
A_2     C     0.4104     0.9062     0.4774
A_2     C     0.3313     0.8345     0.6028
A_3     C     0.6925     0.9431     0.3405
A_2     C     0.0133     0.6418     0.1761
A_2     C     0.7761     0.9788     0.7371
A_0     C     0.1481     0.4666     0.3644
A_0     C     0.743     0.2421     0.6919
A_2     C     0.1872     0.8928     0.4315
A_3     C     0.5762     0.8672     0.1241
A_1     C     0.195     0.7203     0.3226
A_1     C     0.5845     0.6576     0.2135
A_3     C     0.6266     0.1701     0.749
A_0     C     0.0629     0.4872     0.3691
A_1     C     0.1106     0.7949     0.6526
A_2     C     0.3885     0.0107     0.5434
A_2     C     0.3006     0.2778     0.1102
A_2     C     0.6442     0.8278     0.9949
A_1     C     0.3481     0.3802     0.6266
A_0     C     0.6198     0.0937     0.5587
A_3     C     0.7654     0.0456     0.9844
A_0     C     0.8326     0.0365     0.8853
A_2     C     0.3071     0.9726     0.4897
A_2     C     0.019     0.0021     0.7226
A_2     C     0.339     0.0796     0.3274
A_2     C     0.9324     0.9911     0.8269
A_3     C     0.9135     0.7373     0.2709
A_0     C     0.7387     0.7165     0.9476
A_2     C     0.4625     0.3012     0.7291
A_2     C     0.1257     0.2502     0.3563
A_2     C     0.5406     0.7206     0.4708
A_1     C     0.7855     0.7808     0.011
A_1     C     0.694     0.0275     0.9142
A_3     C     0.1943     0.2414     0.7993
A_2     C     0.0244     0.9356     0.022
A_2     C     0.7082     0.5948     0.1805
A_3     C     0.5346     0.3588     0.3416
A_3     C     0.5692     0.3475     0.2453
A_1     C     0.5138     0.5683     0.4168
A_3     C     0.5355     0.9012     0.299
A_2     C     0.2203     0.2104     0.9316
A_3     C     0.9845     0.9571     0.3684
A_2     C     0.9569     0.7343     0.2663
A_1     C     0.1915     0.7078     0.8157
A_1     C     0.9107     0.3716     0.1654
A_3     C     0.4295     0.6511     0.0408
A_1     C     0.8943     0.0606     0.2905
A_2     C     0.6841     0.3053     0.5589
A_2     C     0.5625     0.0866     0.4746
A_0     C     0.2908     0.3224     0.1368
A_3     C     0.5491     0.1355     0.0055
A_3     C     0.7214     0.8075     0.6881
A_3     C     0.1141     0.6522     0.5454
A_2     C     0.1491     0.6074     0.1629
A_2     C     0.9279     0.2089     0.1631
A_1     C     0.8173     0.6753     0.5294
A_1     C     0.6813     0.7373     0.6147
A_2     C     0.3981     0.277     0.1199
A_2     C     0.6689     0.5408     0.3406
A_1     C     0.3956     0.8558     0.1514
A_0     C     0.3654     0.4753     0.1932
A_3     C     0.2494     0.637     0.812
A_1     C     0.8098     0.388     0.7937
A_2     C     0.9137     0.5858     0.7641
A_3     C     0.0893     0.19     0.4417
A_0     C     0.6985     0.5521     0.4347
A_3     C     0.36     0.2397     0.6235
A_1     C     0.0753     0.2608     0.9192
A_0     C     0.0227     0.1701     0.8325
A_0     C     0.5065     0.331     0.5511
A_0     C     0.1835     0.777     0.6269
A_1     C     0.1714     0.5249     0.6135
A_2     C     0.7142     0.6536     0.1687
A_0     C     0.5321     0.4285     0.293
A_1     C     0.3884     0.1553     0.943
A_3     C     0.6325     0.6369     0.7034
A_2     C     0.9568     0.9712     0.9845
A_2     C     0.2018     0.7766     0.0047
A_0     C     0.9105     0.9118     0.3308
A_0     C     0.9109     0.5969     0.7927
A_3     C     0.6366     0.3258     0.843
A_3     C     0.1409     0.4645     0.913
A_2     C     0.2872     0.1169     0.9796
A_3     C     0.1775     0.7871     0.6044
A_2     C     0.0441     0.1503     0.4322
A_0     C     0.4646     0.561     0.1375
A_2     C     0.2507     0.841     0.834
A_2     C     0.474     0.8875     0.6247
A_3     C     0.5732     0.3108     0.2441
A_3     C     0.9868     0.6072     0.5663
A_2     C     0.9799     0.3377     0.2885
A_0     C     0.262     0.5868     0.0013
A_0     C     0.6953     0.8795     0.3407
A_2     C     0.1236     0.8467     0.1115
A_0     C     0.9153     0.4612     0.5364
A_1     C     0.8845     0.6498     0.7773
A_0     C     0.9651     0.2249     0.6637
A_1     C     0.2063     0.0474     0.9053
A_1     C     0.0597     0.9133     0.1542
A_0     C     0.3396     0.6465     0.6672
A_2     C     0.6486     0.6174     0.7506
A_1     C     0.2455     0.7593     0.6344
A_0     C     0.303     0.7548     0.6839
A_1     C     0.3248     0.7814     0.2283
A_1     C     0.376     0.9371     0.4291
A_3     C     0.2898     0.404     0.6186
A_1     C     0.2321     0.8526     0.8223
A_3     C     0.7684     0.44     0.9165
A_3     C     0.3419     0.8126     0.6873
A_3     C     0.2428     0.536     0.8493
A_3     C     0.7761     0.6267     0.4356
A_0     C     0.4889     0.0256     0.7284
A_0     C     0.3194     0.7968     0.4162
A_2     C     0.8816     0.1952     0.8888
A_3     C     0.469     0.7135     0.3038
A_0     C     0.3532     0.9582     0.5484
A_2     C     0.6992     0.6158     0.9235
A_0     C     0.6965     0.32     0.9485
A_3     C     0.0871     0.4815     0.6759
A_2     C     0.6007     0.2697     0.0613
A_0     C     0.2907     0.8587     0.3861
A_1     C     0.2815     0.8932     0.4048
A_2     C     0.2253     0.0782     0.197
A_3     C     0.441     0.7842     0.4455
A_2     C     0.4997     0.5971     0.7659
A_3     C     0.0476     0.996     0.3625
A_2     C     0.327     0.5941     0.1093
A_3     C     0.5924     0.2885     0.8688
A_3     C     0.4284     0.0936     0.7084
A_3     C     0.1015     0.1916     0.3049
A_1     C     0.4821     0.0881     0.5766
A_1     C     0.3904     0.9691     0.0935
A_3     C     0.5921     0.6675     0.1042
A_1     C     0.6638     0.3015     0.1897
A_3     C     0.9863     0.4045     0.1974
A_2     C     0.3724     0.4003     0.278
A_1     C     0.9546     0.7802     0.3715
A_3     C     0.3516     0.6914     0.7486
A_0     C     0.8357     0.9462     0.1285
A_3     C     0.2108     0.7771     0.626
A_0     C     0.717     0.2318     0.9392
A_2     C     0.8189     0.8744     0.1671
A_2     C     0.393     0.0003     0.1739
A_1     C     0.9815     0.2517     0.4575
A_2     C     0.8357     0.6459     0.6679
A_1     C     0.6343     0.4335     0.735
A_2     C     0.2003     0.2873     0.3925
A_1     C     0.3556     0.1231     0.9854
A_1     C     0.3104     0.9807     0.0065
A_0     C     0.3802     0.7125     0.4834
A_1     C     0.0668     0.0266     0.619
A_2     C     0.4401     0.3964     0.7609
A_3     C     0.2976     0.7973     0.5494
A_1     C     0.8353     0.4277     0.7621
A_3     C     0.5009     0.604     0.7364
A_3     C     0.0249     0.1096     0.0085
A_2     C     0.3565     0.0701     0.9734
A_1     C     0.7502     0.5087     0.6182
A_1     C     0.1154     0.9586     0.8689
A_0     C     0.2296     0.8075     0.5619
A_0     C     0.6941     0.7325     0.6298
A_3     C     0.8411     0.231     0.3729
A_1     C     0.0687     0.8248     0.6386
A_1     C     0.5102     0.133     0.8176
A_3     C     0.5206     0.4398     0.5624
A_3     C     0.2868     0.8955     0.3339
A_2     C     0.4979     0.4358     0.4335
A_0     C     0.912     0.6575     0.0258
A_0     C     0.5436     0.3698     0.1887
A_3     C     0.2913     0.4908     0.6317
A_0     C     0.0547     0.9741     0.0334
A_0     C     0.8789     0.8822     0.7995
A_0     C     0.7312     0.1575     0.927
A_3     C     0.5195     0.4183     0.9253
A_1     C     0.6255     0.5274     0.0548
A_0     C     0.5037     0.2652     0.676
A_0     C     0.9595     0.1835     0.5894
A_0     C     0.4167     0.0906     0.8664
A_2     C     0.3607     0.1598     0.3569
A_3     C     0.9772     0.357     0.2586
A_0     C     0.3029     0.4761     0.4558
A_0     C     0.6898     0.5133     0.4386
A_2     C     0.2338     0.9662     0.9827
A_3     C     0.2087     0.4401     0.261
A_0     C     0.798     0.4621     0.7928
A_0     C     0.9471     0.7535     0.0905
A_3     C     0.4435     0.3124     0.1392
A_1     C     0.1266     0.7782     0.5135
A_0     C     0.8289     0.7968     0.8999
A_3     C     0.3433     0.207     0.6622
A_2     C     0.8237     0.1093     0.9778
A_0     C     0.3902     0.5353     0.7337
A_1     C     0.569     0.3666     0.6746
A_1     C     0.5354     0.0228     0.8325
A_3     C     0.6153     0.4789     0.0666
A_2     C     0.307     0.3595     0.7878
A_1     C     0.1159     0.7488     0.6997
A_0     C     0.5775     0.3763     0.4231
A_0     C     0.3482     0.1905     0.5766
A_3     C     0.3112     0.1429     0.134
A_3     C     0.4112     0.0018     0.9285
A_3     C     0.3718     0.9939     0.4414
A_3     C     0.9911     0.1779     0.3058
A_3     C     0.0424     0.9349     0.1283
A_1     C     0.6349     0.082     0.0996
A_2     C     0.2799     0.3992     0.4728
A_3     C     0.7076     0.3176     0.2994
A_2     C     0.5404     0.467     0.6106
A_1     C     0.45     0.8233     0.4382
A_1     C     0.6731     0.8548     0.7124
A_0     C     0.0172     0.3598     0.6826
A_0     C     0.1324     0.757     0.3408
A_0     C     0.6251     0.3138     0.7813
A_2     C     0.2733     0.314     0.2811
A_3     C     0.8273     0.5674     0.057
A_3     C     0.3689     0.7694     0.8144
A_2     C     0.0297     0.4647     0.1004
A_1     C     0.3874     0.1399     0.8296
A_3     C     0.1712     0.2351     0.0312
A_3     C     0.5615     0.5154     0.2781
A_2     C     0.2967     0.6021     0.7332
A_0     C     0.135     0.4954     0.0715
A_0     C     0.5252     0.9345     0.3791
A_1     C     0.2143     0.9724     0.812
A_0     C     0.032     0.042     0.3558
A_1     C     0.633     0.0398     0.1367
A_0     C     0.1405     0.6179     0.5857
A_1     C     0.5403     0.9282     0.077
A_2     C     0.2211     0.4006     0.6013
A_3     C     0.1141     0.9949     0.9417
A_1     C     0.7402     0.2608     0.5069
A_0     C     0.7155     0.3585     0.7117
A_3     C     0.3827     0.0698     0.1738
A_0     C     0.1806     0.8821     0.2076
A_0     C     0.4594     0.1695     0.2658
A_1     C     0.423     0.0475     0.6122
A_2     C     0.6871     0.1669     0.7405
A_3     C     0.2825     0.5575     0.8915
A_2     C     0.8087     0.2978     0.235
A_2     C     0.7298     0.3827     0.7925
A_3     C     0.9022     0.6867     0.6616
A_1     C     0.627     0.3164     0.0322
A_3     C     0.2651     0.9119     0.4529
A_1     C     0.6771     0.5449     0.11
A_2     C     0.3325     0.1119     0.7305
A_2     C     0.8196     0.7173     0.764
A_2     C     0.5618     0.6127     0.5775
A_2     C     0.789     0.3914     0.5466
A_2     C     0.3372     0.563     0.8743
A_3     C     0.5649     0.3148     0.1824
A_2     C     0.9773     0.1908     0.1881
A_2     C     0.515     0.8024     0.7009
A_2     C     0.5399     0.6656     0.7256
A_1     C     0.8257     0.3042     0.1288
A_3     C     0.1592     0.1891     0.1184
A_1     C     0.6051     0.6405     0.3206
A_2     C     0.5281     0.0087     0.9283
A_2     C     0.5832     0.3428     0.5221
A_0     C     0.0719     0.3773     0.484
A_3     C     0.9871     0.2952     0.7441
A_3     C     0.8547     0.1064     0.1132
A_2     C     0.5123     0.0891     0.0912
A_3     C     0.5973     0.9551     0.5946
A_3     C     0.4256     0.8945     0.5969
A_2     C     0.1543     0.0805     0.6363
A_1     C     0.9767     0.4171     0.3395
A_2     C     0.5825     0.3509     0.4703
A_3     C     0.7005     0.3847     0.8484
A_3     C     0.7268     0.0377     0.5577
A_0     C     0.8889     0.3625     0.7224
A_0     C     0.3402     0.2075     0.949
A_2     C     0.6898     0.4234     0.2227
A_1     C     0.1076     0.7215     0.5021
A_2     C     0.2723     0.4691     0.7257
A_3     C     0.1643     0.6784     0.6548
A_2     C     0.2021     0.0254     0.0499
A_1     C     0.5651     0.6024     0.9485
A_3     C     0.5955     0.2402     0.6617
A_0     C     0.5121     0.6712     0.7897
A_3     C     0.2952     0.4981     0.1592
A_3     C     0.136     0.2095     0.4664
A_1     C     0.8722     0.671     0.8758
A_1     C     0.8849     0.2469     0.0993
A_3     C     0.3527     0.1076     0.5108
A_3     C     0.4156     0.016     0.3682
A_3     C     0.4359     0.16     0.4007
A_0     C     0.5249     0.9012     0.2
A_0     C     0.8086     0.5538     0.9988
A_3     C     0.9549     0.7748     0.1816
A_0     C     0.145     0.1018     0.9503
A_3     C     0.0031     0.5484     0.8757
A_3     C     0.4225     0.6866     0.7615
A_1     C     0.9095     0.8432     0.9083
A_2     C     0.0232     0.5785     0.7361
A_1     C     0.1351     0.1051     0.9428
A_2     C     0.3976     0.6178     0.0074
A_0     C     0.3157     0.6264     0.1162
A_1     C     0.9492     0.0337     0.2362
A_3     C     0.8115     0.093     0.2247
A_0     C     0.7806     0.5486     0.256
A_0     C     0.8052     0.6156     0.2633
A_0     C     0.794     0.8703     0.2677
A_2     C     0.7939     0.0827     0.7201
A_0     C     0.2974     0.9047     0.7518
A_1     C     0.9419     0.4281     0.359
A_0     C     0.6934     0.0637     0.9572
A_0     C     0.5992     0.4555     0.5754
A_2     C     0.2569     0.8913     0.8186
A_0     C     0.9814     0.206     0.458
A_2     C     0.8493     0.9433     0.6057
A_0     C     0.798     0.7049     0.1861
A_0     C     0.05     0.6246     0.7459
A_0     C     0.7078     0.5543     0.1541
A_1     C     0.5634     0.2463     0.3154
A_2     C     0.526     0.3494     0.5351
A_3     C     0.5157     0.1663     0.4709
A_2     C     0.3116     0.0785     0.9866
A_2     C     0.9151     0.618     0.7633
A_3     C     0.4152     0.0095     0.2863
A_3     C     0.9077     0.4779     0.4666
A_0     C     0.3783     0.8087     0.4891
A_2     C     0.1522     0.7348     0.4552
A_1     C     0.6401     0.7732     0.7927
A_1     C     0.8074     0.1488     0.8366
A_1     C     0.8915     0.1021     0.2449
A_3     C     0.7703     0.6473     0.612
A_3     C     0.3084     0.74     0.6391
A_3     C     0.2035     0.6272     0.6205
A_1     C     0.7567     0.0149     0.2299
A_0     C     0.9066     0.7918     0.925
A_0     C     0.5752     0.6419     0.9444
A_0     C     0.3058     0.229     0.4287
A_0     C     0.7911     0.6057     0.165
A_2     C     0.0196     0.5119     0.9999
A_2     C     0.8019     0.3069     0.9601
A_3     C     0.06     0.0396     0.9334
A_3     C     0.2372     0.5848     0.8957
A_0     C     0.4683     0.4565     0.4853
A_2     C     0.2797     0.1378     0.2152
A_2     C     0.962     0.6276     0.4772
A_3     C     0.0192     0.1801     0.3379
A_2     C     0.6494     0.3865     0.3557
A_1     C     0.3019     0.253     0.6686
A_1     C     0.3355     0.2224     0.7539
A_2     C     0.8982     0.5233     0.4454
A_0     C     0.022     0.1398     0.2847
A_3     C     0.3624     0.6931     0.0443
A_1     C     0.5988     0.0913     0.1191
A_0     C     0.0281     0.0897     0.484
A_0     C     0.932     0.1116     0.8471
A_3     C     0.605     0.1485     0.4355
A_0     C     0.769     0.5251     0.1786
A_1     C     0.6347     0.0886     0.891
A_3     C     0.3019     0.3607     0.9085
A_3     C     0.8396     0.5806     0.2506
A_1     C     0.6763     0.0221     0.5585
A_0     C     0.8916     0.8141     0.0345
A_1     C     0.6239     0.2646     0.4258
A_1     C     0.1333     0.6822     0.9625
A_1     C     0.4178     0.8179     0.4781
A_3     C     0.1027     0.2011     0.8776
A_2     C     0.8566     0.9495     0.0082
A_1     C     0.0779     0.226     0.8961
A_2     C     0.9143     0.4569     0.0122
A_2     C     0.4216     0.2481     0.0185
A_1     C     0.0171     0.6353     0.0869
A_2     C     0.4503     0.6003     0.0113
A_0     C     0.8101     0.1405     0.9604
A_1     C     0.1201     0.055     0.9093
A_1     C     0.1184     0.2236     0.3867
A_2     C     0.6588     0.9759     0.0059
A_0     C     0.0783     0.1782     0.686
A_3     C     0.7662     0.5205     0.7242
A_2     C     0.4708     0.2376     0.4924
A_0     C     0.6401     0.6732     0.0007
A_3     C     0.0693     0.6323     0.2252
A_0     C     0.8263     0.4613     0.9919
A_3     C     0.5486     0.234     0.8065
A_3     C     0.7443     0.1141     0.158
A_2     C     0.3361     0.6552     0.6084
A_0     C     0.9231     0.0645     0.4325
A_3     C     0.6143     0.3473     0.1397
A_2     C     0.6884     0.7573     0.6585
A_0     C     0.0772     0.3426     0.1962
A_2     C     0.9784     0.9298     0.0322
A_0     C     0.0702     0.0306     0.106
A_0     C     0.2795     0.4245     0.9148
A_3     C     0.4666     0.0496     0.8794
A_2     C     0.9106     0.8195     0.5026
A_0     C     0.7054     0.3353     0.167
A_2     C     0.2219     0.1152     0.7955
A_3     C     0.1561     0.5681     0.4245
A_1     C     0.573     0.6075     0.2879
A_2     C     0.1644     0.3132     0.0139
A_2     C     0.7205     0.8938     0.5713
A_0     C     0.1565     0.3867     0.8142
A_0     C     0.4913     0.1241     0.0277
A_2     C     0.7844     0.7316     0.3269
A_0     C     0.4737     0.0342     0.1207
A_3     C     0.7389     0.3798     0.2418
A_2     C     0.2468     0.6986     0.6445
A_2     C     0.4613     0.171     0.6126
A_1     C     0.4945     0.1976     0.0469
A_3     C     0.9323     0.2288     0.701
A_0     C     0.7856     0.301     0.8476
A_2     C     0.6943     0.0362     0.4537
A_3     C     0.8185     0.46     0.0273
A_0     C     0.637     0.8091     0.9999
A_2     C     0.7617     0.5949     0.7484
A_3     C     0.2758     0.5509     0.6679
A_1     C     0.1083     0.2226     0.4701
A_2     C     0.4009     0.6085     0.4383
A_2     C     0.9595     0.5929     0.083
A_0     C     0.0283     0.548     0.8805
A_1     C     0.6674     0.3645     0.3326
A_0     C     0.4216     0.2587     0.3349
A_3     C     0.7554     0.9319     0.0866
A_2     C     0.1527     0.3691     0.3916
A_2     C     0.2654     0.6491     0.6794
A_3     C     0.939     0.6121     0.4601
A_3     C     0.4672     0.058     0.4532
A_3     C     0.6987     0.4812     0.7684
A_0     C     0.3671     0.436     0.2917
A_3     C     0.0507     0.0384     0.9743
A_2     C     0.1084     0.063     0.3169
A_0     C     0.9112     0.0866     0.945
A_1     C     0.1424     0.1935     0.1493
A_2     C     0.778     0.7474     0.7233
A_2     C     0.1112     0.1494     0.3442
A_1     C     0.1937     0.3115     0.7855
A_0     C     0.7847     0.8266     0.7009
A_0     C     0.7457     0.2535     0.1365
A_0     C     0.2062     0.8074     0.7486
A_3     C     0.725     0.4983     0.6602
A_2     C     0.4394     0.0836     0.4793
A_2     C     0.5057     0.9181     0.5468
A_3     C     0.7565     0.0779     0.6332
A_3     C     0.4921     0.6905     0.7711
A_1     C     0.0861     0.8853     0.9434
A_3     C     0.5892     0.4009     0.5569
A_2     C     0.2806     0.7864     0.3609
A_2     C     0.3038     0.0078     0.4951
A_1     C     0.8434     0.7363     0.8642
A_1     C     0.4836     0.0121     0.7868
A_1     C     0.2743     0.8947     0.2525
A_1     C     0.6437     0.6181     0.7563
A_2     C     0.103     0.7177     0.0529
A_2     C     0.2166     0.4787     0.0548
A_3     C     0.6196     0.026     0.8611
A_0     C     0.4828     0.7685     0.7791
A_1     C     0.9604     0.5164     0.0148
A_1     C     0.2332     0.1002     0.9968
A_2     C     0.0111     0.2283     0.8962
A_0     C     0.9067     0.2158     0.2999
A_1     C     0.5202     0.0666     0.0114
A_0     C     0.8311     0.8499     0.9855
A_0     C     0.3751     0.37     0.0593
A_1     C     0.9835     0.7528     0.1595
A_2     C     0.0296     0.608     0.992
A_0     C     0.3462     0.493     0.3165
A_1     C     0.2668     0.1177     0.1202
A_2     C     0.9471     0.8141     0.8629
A_1     C     0.9044     0.6204     0.9889
A_3     C     0.8565     0.166     0.0608
A_2     C     0.1707     0.8088     0.6173
A_3     C     0.614     0.5784     0.7654
A_3     C     0.194     0.8724     0.7319
A_1     C     0.772     0.809     0.6747
A_1     C     0.8068     0.4724     0.8332
A_2     C     0.9557     0.886     0.5855
A_0     C     0.2837     0.2006     0.4417
A_0     C     0.4645     0.9714     0.595
A_1     C     0.9642     0.278     0.2485
A_3     C     0.4691     0.6884     0.4966
A_2     C     0.4782     0.0541     0.912
A_2     C     0.3549     0.3731     0.0876
A_0     C     0.8255     0.202     0.8386
A_0     C     0.7581     0.2764     0.7578
A_2     C     0.7874     0.8104     0.4072
A_2     C     0.5649     0.1891     0.7628
A_3     C     0.0586     0.5035     0.2369
A_0     C     0.4602     0.9962     0.0189
A_3     C     0.512     0.2657     0.7139
A_2     C     0.9152     0.9575     0.298
A_0     C     0.1759     0.1183     0.3987
A_0     C     0.3347     0.8547     0.8672
A_1     C     0.1123     0.2593     0.5344
A_2     C     0.1766     0.279     0.757
A_1     C     0.9312     0.9206     0.1437
A_2     C     0.9377     0.1096     0.9428
A_2     C     0.9749     0.6155     0.2103
A_1     C     0.4948     0.9186     0.9348
A_1     C     0.4103     0.628     0.3347
A_0     C     0.8693     0.0245     0.4833
A_1     C     0.8483     0.1018     0.5651
A_2     C     0.2841     0.3197     0.9189
A_2     C     0.0749     0.9675     0.3571
A_2     C     0.6597     0.5331     0.2285
A_3     C     0.0871     0.7776     0.3802
A_0     C     0.231     0.2257     0.7189
A_0     C     0.863     0.8031     0.5776
A_3     C     0.0469     0.6434     0.7654
A_2     C     0.852     0.5842     0.8557
A_2     C     0.8623     0.953     0.2516
A_0     C     0.8669     0.2028     0.3194
A_0     C     0.0754     0.1498     0.6365
A_0     C     0.2252     0.0268     0.2292
A_1     C     0.5924     0.6565     0.0236
A_0     C     0.5929     0.5906     0.9326
A_3     C     0.331     0.9851     0.0323
A_1     C     0.4226     0.4569     0.0844
A_3     C     0.1802     0.1571     0.1242
A_0     C     0.1651     0.1536     0.9966
A_0     C     0.1825     0.4063     0.5015
A_3     C     0.6405     0.2726     0.3102
A_1     C     0.8478     0.096     0.1475
A_3     C     0.1164     0.5478     0.0678
A_3     C     0.0317     0.3128     0.2304
A_2     C     0.3498     0.1641     0.9133
A_3     C     0.7108     0.2516     0.9715
A_2     C     0.3433     0.5869     0.4256
A_0     C     0.4314     0.5644     0.4465
A_1     C     0.4831     0.8138     0.8944
A_3     C     0.1614     0.3061     0.1002
A_2     C     0.3084     0.5979     0.4069
A_3     C     0.2917     0.4094     0.5055
A_3     C     0.7434     0.8593     0.6972
A_3     C     0.8957     0.0529     0.095
A_3     C     0.0264     0.1932     0.6278
A_2     C     0.5252     0.9271     0.7222
A_1     C     0.398     0.2869     0.4066
A_1     C     0.3964     0.7473     0.1986
A_3     C     0.1467     0.8293     0.4057
A_2     C     0.3262     0.1171     0.7529
A_2     C     0.8045     0.576     0.9696
A_1     C     0.2975     0.5317     0.6738
A_1     C     0.6899     0.777     0.5083
A_0     C     0.7027     0.98     0.4674
A_2     C     0.334     0.8017     0.7862
A_2     C     0.5817     0.1652     0.6709
A_3     C     0.2664     0.9833     0.8498
A_2     C     0.4013     0.2524     0.8877
A_1     C     0.539     0.364     0.4017
A_3     C     0.7652     0.1459     0.0467
A_1     C     0.3647     0.2773     0.3611
A_1     C     0.6773     0.6232     0.0538
A_2     C     0.0467     0.509     0.8067
A_2     C     0.7105     0.5339     0.6264
A_1     C     0.5092     0.1649     0.8948
A_0     C     0.9034     0.9728     0.9602
A_2     C     0.9763     0.5607     0.3186
A_0     C     0.5331     0.209     0.7151
A_0     C     0.4104     0.0044     0.9662
A_0     C     0.032     0.2337     0.1658
A_0     C     0.331     0.4543     0.7075
A_2     C     0.4163     0.2808     0.9581
A_1     C     0.1162     0.8647     0.3469
A_1     C     0.6593     0.3521     0.8076
A_1     C     0.3077     0.704     0.2527
A_0     C     0.8518     0.6881     0.2967
A_0     C     0.0048     0.3597     0.1044
A_3     C     0.0087     0.8619     0.3802
A_3     C     0.2545     0.9248     0.9118
A_2     C     0.7175     0.9639     0.6034
A_0     C     0.7483     0.8558     0.1286
A_3     C     0.4555     0.16     0.6008
A_1     C     0.9865     0.404     0.8884
A_0     C     0.6626     0.0212     0.6255
A_1     C     0.1144     0.1565     0.8783
A_3     C     0.3377     0.6087     0.1705
A_3     C     0.1303     0.7075     0.9436
A_2     C     0.4306     0.0123     0.9662
A_1     C     0.0914     0.64     0.6936
A_1     C     0.6837     0.5054     0.8969
A_0     C     0.7313     0.767     0.1241
A_0     C     0.7159     0.7067     0.9092
A_0     C     0.1626     0.1658     0.0389
A_0     C     0.2836     0.3867     0.4826
A_1     C     0.1818     0.0828     0.1514
A_1     C     0.8771     0.6201     0.2133
A_0     C     0.5517     0.0311     0.0508
A_3     C     0.3476     0.6529     0.9199
A_3     C     0.621     0.7833     0.5188
A_2     C     0.2396     0.1439     0.7864
A_1     C     0.2837     0.0834     0.1223
A_1     C     0.8981     0.4288     0.3226
A_0     C     0.7142     0.6849     0.6432
A_1     C     0.6662     0.2302     0.4563
A_2     C     0.8412     0.6599     0.1088
A_0     C     0.9442     0.4909     0.8413
A_0     C     0.3395     0.586     0.5678
A_3     C     0.6905     0.1263     0.2046
A_0     C     0.2749     0.6254     0.9126
A_3     C     0.2969     0.1969     0.6313
A_2     C     0.3269     0.6791     0.5093
A_3     C     0.0458     0.9883     0.2757
A_0     C     0.5515     0.3533     0.0994
A_1     C     0.9131     0.9723     0.7373
A_3     C     0.6031     0.2291     0.262
A_1     C     0.9822     0.4862     0.7249
A_3     C     0.9661     0.2482     0.151
A_0     C     0.0363     0.374     0.1476
A_2     C     0.4648     0.955     0.7772
A_1     C     0.9165     0.8907     0.4185
A_1     C     0.3309     0.3078     0.4278
A_3     C     0.9128     0.9722     0.0759
A_1     C     0.1054     0.5807     0.9595
A_1     C     0.6854     0.5713     0.3338
A_2     C     0.5475     0.751     0.8383
A_1     C     0.6337     0.6439     0.0474
A_2     C     0.9203     0.2077     0.9365
A_0     C     0.4476     0.3837     0.6182
A_2     C     0.343     0.5104     0.7566
A_3     C     0.557     0.1745     0.7334
A_1     C     0.1748     0.8373     0.9951
A_2     C     0.6414     0.0927     0.8019
A_0     C     0.649     0.8874     0.7762
A_3     C     0.0513     0.2743     0.4275
A_3     C     0.0222     0.1466     0.7142
A_2     C     0.7911     0.4972     0.2925
A_1     C     0.4312     0.7892     0.2247
A_0     C     0.486     0.011     0.2258
A_0     C     0.8282     0.2408     0.3305
A_0     C     0.5297     0.1022     0.731
A_1     C     0.0592     0.2193     0.5998
A_0     C     0.1661     0.5105     0.0434
A_1     C     0.7115     0.1833     0.3318
A_2     C     0.1824     0.0874     0.1939
A_1     C     0.3107     0.5212     0.8383
A_3     C     0.0213     0.4586     0.9103
A_2     C     0.7491     0.2945     0.2721
A_2     C     0.6431     0.2578     0.9314
A_0     C     0.0261     0.9462     0.3161
A_1     C     0.8057     0.6131     0.537
A_2     C     0.6581     0.1804     0.2431
A_2     C     0.9011     0.2867     0.3437
A_0     C     0.4087     0.5841     0.9114
A_2     C     0.5597     0.3594     0.122
A_1     C     0.0496     0.7401     0.8188
A_0     C     0.1845     0.8497     0.4449
A_1     C     0.6233     0.5882     0.4395
A_1     C     0.0033     0.3819     0.8292
A_3     C     0.8971     0.9102     0.8769
A_2     C     0.7243     0.0984     0.8842
A_0     C     0.8746     0.7705     0.6819
A_3     C     0.1283     0.2695     0.1404
A_3     C     0.348     0.3834     0.2578
A_0     C     0.8536     0.7458     0.5309
A_1     C     0.2481     0.1013     0.2733
A_3     C     0.8651     0.7494     0.6865
A_2     C     0.0777     0.4166     0.5712
A_2     C     0.7446     0.9554     0.559
A_1     C     0.2538     0.91     0.6914
A_0     C     0.1852     0.9796     0.6573
A_3     C     0.5472     0.696     0.0742
A_1     C     0.1835     0.8816     0.7488
A_2     C     0.2059     0.5237     0.2287
A_3     C     0.8409     0.6239     0.6721
A_2     C     0.6002     0.5924     0.3213
A_2     C     0.0291     0.4487     0.103
A_3     C     0.3126     0.3632     0.5571
A_2     C     0.8272     0.265     0.1289
A_1     C     0.7436     0.7174     0.952
A_0     C     0.2823     0.799     0.9838
A_1     C     0.4421     0.8893     0.5994
A_1     C     0.0357     0.678     0.9449
A_1     C     0.933     0.9049     0.8762
A_1     C     0.0152     0.2614     0.9729
A_2     C     0.0342     0.2745     0.722
A_0     C     0.3146     0.1657     0.1996
A_2     C     0.7498     0.2703     0.969
A_1     C     0.657     0.1212     0.7274
A_0     C     0.2406     0.9769     0.9052
A_2     C     0.985     0.3946     0.8662
A_3     C     0.4432     0.315     0.337
A_1     C     0.4492     0.7538     0.3265
A_2     C     0.8918     0.4592     0.5811
A_1     C     0.8284     0.7634     0.8552
A_2     C     0.7789     0.3721     0.6194
A_2     C     0.1532     0.4805     0.0857
A_3     C     0.9698     0.2003     0.5261
A_2     C     0.7322     0.0739     0.8545
A_3     C     0.3784     0.1809     0.5952
A_1     C     0.6615     0.9485     0.9211
A_2     C     0.894     0.7961     0.8453
A_2     C     0.3688     0.3886     0.1121
A_0     C     0.1611     0.4073     0.199
A_0     C     0.2131     0.2056     0.8805
A_2     C     0.4373     0.1156     0.5132
A_2     C     0.0055     0.3746     0.2729
A_2     C     0.4413     0.1644     0.7126
A_0     C     0.1689     0.0653     0.5446
A_1     C     0.5447     0.4285     0.1465
A_1     C     0.1321     0.1539     0.5521
A_0     C     0.5088     0.2034     0.6781
A_0     C     0.0115     0.3949     0.6014
A_3     C     0.4153     0.09     0.872
A_0     C     0.8519     0.1141     0.2966
A_3     C     0.4371     0.9857     0.0497
A_1     C     0.9828     0.0989     0.6088
A_0     C     0.8429     0.4378     0.9748
A_3     C     0.7279     0.2188     0.1382
A_0     C     0.6211     0.5249     0.4528
A_1     C     0.4614     0.6042     0.9102
A_1     C     0.5921     0.5601     0.7046
A_3     C     0.8991     0.1359     0.9898
A_2     C     0.907     0.7852     0.1074
A_0     C     0.6285     0.7429     0.475
A_0     C     0.7656     0.2652     0.2365
A_1     C     0.4205     0.9583     0.3008
A_3     C     0.6011     0.8523     0.8605
A_0     C     0.856     0.264     0.4663
A_1     C     0.2039     0.7273     0.0746
A_3     C     0.0598     0.9698     0.2466
A_0     C     0.2386     0.363     0.0143
A_2     C     0.367     0.2759     0.4546
A_1     C     0.5997     0.1253     0.749
A_2     C     0.701     0.6413     0.5287
A_0     C     0.2392     0.4156     0.1461
A_2     C     0.9159     0.2157     0.4358
A_3     C     0.8856     0.4884     0.994
A_2     C     0.9236     0.1671     0.5992
A_0     C     0.79     0.7895     0.0369
A_3     C     0.5583     0.863     0.0799
A_0     C     0.3134     0.9516     0.3119
A_1     C     0.567     0.3247     0.9892
A_3     C     0.2809     0.522     0.6401
A_0     C     0.8029     0.8998     0.8508
A_3     C     0.9731     0.6654     0.632
A_0     C     0.0987     0.6939     0.5848
A_2     C     0.4837     0.8701     0.8378
A_2     C     0.7497     0.3074     0.1779
A_0     C     0.8925     0.5614     0.356
A_0     C     0.1827     0.9565     0.9592
A_2     C     0.0007     0.87     0.3035
A_3     C     0.5691     0.0842     0.1748
A_2     C     0.7631     0.2875     0.7126
A_1     C     0.3303     0.0321     0.2322
A_1     C     0.9053     0.4907     0.4226
A_2     C     0.0665     0.4976     0.7956
A_1     C     0.7617     0.6828     0.0048
A_2     C     0.4398     0.5684     0.1596
A_0     C     0.0325     0.3406     0.5764
A_1     C     0.678     0.1456     0.9267
A_2     C     0.837     0.5211     0.4868
A_3     C     0.5666     0.9591     0.3008
A_1     C     0.4235     0.9291     0.5517
A_2     C     0.253     0.9707     0.9727
A_2     C     0.3129     0.8074     0.1442
A_3     C     0.0642     0.6071     0.4978
A_3     C     0.9449     0.0087     0.9912
A_0     C     0.1543     0.3236     0.3975
A_1     C     0.0408     0.8258     0.2982
A_1     C     0.3214     0.8072     0.2692
A_1     C     0.3471     0.482     0.224
A_1     C     0.3117     0.9899     0.5358
A_0     C     0.2409     0.9103     0.5139
A_2     C     0.543     0.3367     0.856
A_0     C     0.7849     0.0768     0.3079
A_2     C     0.0264     0.2657     0.8743
A_2     C     0.6626     0.9072     0.886
A_0     C     0.2846     0.2359     0.4302
A_0     C     0.5442     0.8804     0.4392
A_0     C     0.2813     0.2979     0.9096
A_3     C     0.2334     0.4574     0.7669
A_2     C     0.4437     0.7704     0.1557
A_1     C     0.6208     0.6471     0.3637
A_0     C     0.128     0.8513     0.8312
A_0     C     0.0691     0.7803     0.3073
A_1     C     0.4015     0.7892     0.3651
A_1     C     0.5356     0.5726     0.7997
A_1     C     0.0236     0.1752     0.0597
A_3     C     0.6471     0.7891     0.3812
A_2     C     0.4899     0.4515     0.0656
A_1     C     0.2239     0.8545     0.6208
A_2     C     0.9253     0.5048     0.9125
A_0     C     0.9739     0.9038     0.3936
A_3     C     0.1474     0.6923     0.8813
A_1     C     0.2061     0.0809     0.2894
A_0     C     0.9451     0.3293     0.3247
A_1     C     0.472     0.8309     0.9002
A_2     C     0.342     0.5124     0.2246
A_1     C     0.8295     0.6454     0.9514
A_0     C     0.4783     0.6032     0.2391
A_2     C     0.082     0.3816     0.8507
A_2     C     0.2374     0.4133     0.0781
A_3     C     0.5457     0.2179     0.7143
A_1     C     0.169     0.1949     0.9962
A_2     C     0.7759     0.2881     0.4359
A_0     C     0.5894     0.409     0.8124
A_0     C     0.3249     0.9546     0.5882
A_0     C     0.114     0.8781     0.5747
A_1     C     0.9446     0.0789     0.2614
A_0     C     0.8934     0.8153     0.9451
A_1     C     0.121     0.4466     0.7209
A_2     C     0.7899     0.3378     0.3998
A_0     C     0.052     0.7957     0.1745
A_3     C     0.7924     0.7945     0.0934
A_3     C     0.8181     0.2444     0.3205
A_3     C     0.5738     0.2159     0.58
A_3     C     0.2082     0.0992     0.7761
A_1     C     0.1845     0.3818     0.683
A_1     C     0.6072     0.4973     0.8497
A_1     C     0.3967     0.5573     0.5792
A_0     C     0.664     0.2179     0.499
A_2     C     0.5652     0.2576     0.572
A_2     C     0.9382     0.7757     0.6831
A_2     C     0.3517     0.3562     0.9033
A_3     C     0.7146     0.344     0.0943
A_3     C     0.4948     0.3178     0.7743
A_1     C     0.0503     0.9611     0.2595
A_3     C     0.2616     0.2403     0.0747
A_3     C     0.2992     0.3973     0.5339
A_2     C     0.0736     0.6125     0.6545
A_1     C     0.6859     0.1788     0.4333
A_1     C     0.7715     0.9293     0.1511
A_2     C     0.17     0.1607     0.8672
A_0     C     0.8477     0.935     0.4986
A_0     C     0.9179     0.5048     0.3463
A_0     C     0.0378     0.0562     0.006
A_0     C     0.0134     0.8987     0.4563
A_2     C     0.5008     0.269     0.4218
A_0     C     0.7342     0.1763     0.856
A_3     C     0.7122     0.1074     0.166
A_3     C     0.9266     0.0995     0.6718
A_2     C     0.2325     0.2702     0.0705
A_2     C     0.8946     0.2316     0.3718
A_3     C     0.4552     0.6306     0.2363
A_3     C     0.2949     0.0371     0.1568
A_0     C     0.3261     0.6216     0.5635
A_3     C     0.1262     0.7155     0.8418
A_3     C     0.6769     0.1849     0.2119
A_3     C     0.7579     0.3391     0.7023
A_1     C     0.8868     0.2035     0.9901
A_3     C     0.49     0.444     0.1661
A_2     C     0.0226     0.3812     0.7311
A_1     C     0.8108     0.9594     0.791
A_0     C     0.5429     0.0538     0.1962
A_1     C     0.1756     0.4322     0.2303
A_1     C     0.1321     0.3759     0.3057
A_3     C     0.12     0.4403     0.7668
A_1     C     0.9307     0.8129     0.6757
A_0     C     0.7878     0.1007     0.1666
A_0     C     0.3117     0.777     0.7133
A_1     C     0.6213     0.4793     0.2869
A_0     C     0.3232     0.9188     0.9355
A_0     C     0.9247     0.5355     0.5348
A_0     C     0.5492     0.6191     0.5996
A_1     C     0.0673     0.0929     0.6851
A_1     C     0.5989     0.3539     0.0806
A_0     C     0.3515     0.9129     0.1851
A_2     C     0.6236     0.5378     0.3125
A_2     C     0.5579     0.4737     0.5428
A_3     C     0.7209     0.6812     0.7303
A_2     C     0.6039     0.8074     0.047
A_2     C     0.5319     0.0137     0.9446
A_0     C     0.1878     0.9805     0.9978
A_2     C     0.9009     0.8571     0.05
A_2     C     0.3539     0.3585     0.1129
A_0     C     0.2056     0.7721     0.3157
A_0     C     0.8248     0.1319     0.181
A_2     C     0.188     0.2905     0.5747
A_0     C     0.8895     0.2393     0.5561
A_3     C     0.1273     0.3761     0.9723
A_3     C     0.9351     0.9632     0.163
A_0     C     0.1373     0.5823     0.3824
A_2     C     0.0661     0.8167     0.3083
A_0     C     0.0259     0.6057     0.8609
A_3     C     0.2703     0.8706     0.1866
A_1     C     0.3552     0.7283     0.6701
A_3     C     0.5182     0.5182     0.9568
A_0     C     0.5475     0.4978     0.7783
A_1     C     0.9607     0.9126     0.8126
A_3     C     0.5271     0.3426     0.9559
A_1     C     0.5614     0.3611     0.7793
A_0     C     0.0255     0.7111     0.2461
A_3     C     0.1972     0.9781     0.345
A_0     C     0.2604     0.9681     0.7904
A_1     C     0.1836     0.9075     0.6216
A_1     C     0.0892     0.0357     0.7
A_1     C     0.4133     0.5911     0.9799
A_1     C     0.796     0.6195     0.1377
A_1     C     0.925     0.2184     0.2779
A_1     C     0.0152     0.7652     0.285
A_0     C     0.3782     0.0199     0.3484
A_3     C     0.5756     0.7578     0.8594
A_2     C     0.0274     0.79     0.2202
A_3     C     0.1338     0.0616     0.9166
A_1     C     0.9016     0.1884     0.853
A_3     C     0.9323     0.354     0.0616
A_0     C     0.5744     0.8623     0.4498
A_2     C     0.8441     0.3688     0.624
A_3     C     0.6687     0.0767     0.7486
A_0     C     0.4327     0.9723     0.7199
A_0     C     0.4348     0.852     0.0221
A_1     C     0.3684     0.4855     0.8207
A_1     C     0.959     0.5876     0.2596
A_2     C     0.5333     0.3582     0.6385
A_3     C     0.6665     0.4624     0.9218
A_2     C     0.225     0.6306     0.197
A_3     C     0.4117     0.8067     0.1659
A_1     C     0.0843     0.4863     0.2445
A_3     C     0.7411     0.2137     0.4187
A_3     C     0.5426     0.3978     0.6607
A_1     C     0.3556     0.4825     0.3348
A_3     C     0.9182     0.88     0.3077
A_3     C     0.1337     0.9622     0.8554
A_1     C     0.0791     0.1231     0.1698
A_3     C     0.04     0.1671     0.2853
A_0     C     0.9377     0.0324     0.2359
A_3     C     0.6025     0.1649     0.7582
A_1     C     0.2044     0.6558     0.7884
A_1     C     0.8545     0.0407     0.6607
A_1     C     0.9522     0.6877     0.4987
A_2     C     0.8206     0.8603     0.2352
A_2     C     0.8785     0.4676     0.4715
A_0     C     0.1887     0.808     0.7658
A_2     C     0.2485     0.3962     0.0887
A_1     C     0.6866     0.3241     0.4471
A_3     C     0.9005     0.5398     0.3718
A_3     C     0.8832     0.0241     0.0291
A_0     C     0.5968     0.8988     0.2379
A_2     C     0.0674     0.0539     0.6423
A_0     C     0.1826     0.8323     0.4704
A_3     C     0.8843     0.6605     0.4511
A_2     C     0.2026     0.8626     0.2519
A_3     C     0.7818     0.0857     0.5351
A_3     C     0.0167     0.4225     0.8206
A_1     C     0.4964     0.5529     0.4449
A_1     C     0.0109     0.5011     0.0404
A_2     C     0.2549     0.4599     0.7514
A_2     C     0.2592     0.6449     0.8659
A_1     C     0.8203     0.8582     0.3693
A_0     C     0.4913     0.4572     0.5891
A_3     C     0.1085     0.7808     0.4799
A_2     C     0.1139     0.428     0.1091
A_2     C     0.7137     0.3797     0.0874
A_3     C     0.0229     0.1014     0.4258
A_1     C     0.7364     0.8213     0.8666
A_3     C     0.8728     0.5965     0.0605
A_1     C     0.3261     0.5909     0.8605
A_1     C     0.5872     0.2413     0.7972
A_1     C     0.201     0.6258     0.1623
A_2     C     0.9928     0.415     0.7117
A_1     C     0.4809     0.182     0.074
A_2     C     0.089     0.0289     0.8895
A_0     C     0.7492     0.0672     0.1882
A_2     C     0.7375     0.1574     0.7374
A_0     C     0.6201     0.7402     0.9583
A_2     C     0.1892     0.2657     0.9159
A_2     C     0.1187     0.2652     0.0607
A_1     C     0.392     0.0056     0.3147
A_2     C     0.5044     0.5703     0.5685
A_0     C     0.4645     0.0919     0.1249
A_1     C     0.9255     0.6893     0.1804
A_3     C     0.9537     0.5656     0.8029
A_3     C     0.0091     0.5322     0.1898
A_0     C     0.8686     0.302     0.5118
A_2     C     0.3651     0.5047     0.396
A_2     C     0.1684     0.2777     0.573
A_3     C     0.921     0.7518     0.612
A_2     C     0.2989     0.3014     0.9741
A_1     C     0.9797     0.8077     0.3872
A_3     C     0.8596     0.2496     0.6273
A_3     C     0.3166     0.6044     0.264
A_2     C     0.7139     0.6641     0.5832
A_2     C     0.642     0.7062     0.5961
A_2     C     0.4297     0.1296     0.0608
A_2     C     0.7268     0.853     0.4732
A_1     C     0.9507     0.1423     0.962
A_2     C     0.5037     0.9087     0.5411
A_1     C     0.0928     0.8715     0.8244
A_3     C     0.1716     0.0193     0.3675
A_3     C     0.3351     0.6034     0.0782
A_0     C     0.8163     0.4818     0.5874
A_0     C     0.4636     0.2874     0.7605
A_1     C     0.4521     0.2488     0.7663
A_0     C     0.0119     0.7885     0.2987
A_3     C     0.7975     0.5235     0.4718
A_1     C     0.2993     0.0014     0.7324
A_0     C     0.8732     0.2401     0.0295
A_1     C     0.8122     0.4844     0.3175
A_1     C     0.393     0.2982     0.4578
A_3     C     0.0938     0.6778     0.8522
A_3     C     0.4994     0.9945     0.2242
A_1     C     0.1515     0.1319     0.8794
A_1     C     0.8341     0.3745     0.2125
A_1     C     0.1946     0.5385     0.2115
A_2     C     0.4558     0.6911     0.9319
A_1     C     0.8008     0.2939     0.6861
A_1     C     0.202     0.1434     0.3024
A_1     C     0.1575     0.4255     0.075
A_3     C     0.0363     0.1092     0.5422
A_2     C     0.0607     0.0343     0.4786
A_3     C     0.2387     0.8404     0.6106
A_3     C     0.332     0.7597     0.6272
A_2     C     0.9355     0.1728     0.1227
A_0     C     0.2391     0.407     0.8553
A_3     C     0.0026     0.6112     0.7875
A_0     C     0.613     0.3693     0.6664
A_3     C     0.4009     0.5688     0.4886
A_3     C     0.1746     0.8523     0.6696
A_2     C     0.9622     0.8994     0.8912
A_0     C     0.4046     0.346     0.9241
A_1     C     0.5323     0.1552     0.3317
A_3     C     0.5979     0.6189     0.2826
A_3     C     0.1219     0.2684     0.9806
A_3     C     0.3627     0.1221     0.4255
A_0     C     0.5322     0.8586     0.3135
A_3     C     0.6696     0.2055     0.2176
A_0     C     0.7218     0.5826     0.2554
A_3     C     0.9215     0.0564     0.0918
A_1     C     0.5079     0.8149     0.1187
A_0     C     0.3292     0.3146     0.5472
A_3     C     0.5055     0.9545     0.4115
A_3     C     0.6925     0.5963     0.4174
A_2     C     0.618     0.6763     0.2194
A_1     C     0.6686     0.9655     0.7089
A_2     C     0.195     0.1621     0.9497
A_3     C     0.8565     0.1188     0.3641
A_2     C     0.4694     0.8241     0.285
A_0     C     0.8204     0.1379     0.6033
A_3     C     0.596     0.6127     0.9806
A_2     C     0.2501     0.5331     0.3862
A_2     C     0.2478     0.9322     0.6355
A_1     C     0.9387     0.4437     0.1674
A_1     C     0.7226     0.7193     0.4972
A_0     C     0.0819     0.7069     0.8841
A_0     C     0.6824     0.014     0.8772
A_0     C     0.1954     0.5852     0.8103
A_1     C     0.761     0.6016     0.9854
A_3     C     0.9509     0.683     0.528
A_2     C     0.0606     0.5627     0.8382
A_0     C     0.3251     0.379     0.9037
A_0     C     0.5787     0.7956     0.6095
A_3     C     0.7962     0.6367     0.3717
A_3     C     0.7384     0.9655     0.7524
A_3     C     0.5819     0.9031     0.0909
A_1     C     0.9445     0.2091     0.0185
A_0     C     0.4419     0.0069     0.2111
A_2     C     0.3161     0.9541     0.9937
A_0     C     0.4067     0.8345     0.6639
A_3     C     0.8206     0.4865     0.108
A_3     C     0.2802     0.4185     0.2554
A_1     C     0.4797     0.6288     0.4856
A_3     C     0.3364     0.8818     0.4881
A_3     C     0.2909     0.5856     0.9553
A_3     C     0.4485     0.7076     0.0267
A_0     C     0.5723     0.3825     0.2295
A_0     C     0.6194     0.1537     0.3344
A_2     C     0.5205     0.3451     0.9039
A_1     C     0.9207     0.3878     0.7703
A_2     C     0.2476     0.1732     0.5326
A_3     C     0.8383     0.6067     0.1304
A_2     C     0.8119     0.0266     0.5957
A_2     C     0.6355     0.2721     0.6739
A_1     C     0.9483     0.2492     0.614
A_0     C     0.4781     0.3902     0.0601
A_3     C     0.1798     0.4396     0.2857
A_0     C     0.4967     0.4103     0.1442
A_0     C     0.0643     0.2462     0.423
A_2     C     0.2152     0.6265     0.4034
A_2     C     0.1982     0.5452     0.3135
A_1     C     0.4655     0.5498     0.7856
A_2     C     0.2617     0.4555     0.4756
A_0     C     0.034     0.74     0.135
A_2     C     0.7419     0.3274     0.2874
A_2     C     0.5529     0.1917     0.0752
A_1     C     0.33     0.586     0.4114
A_1     C     0.4352     0.4515     0.2476
A_3     C     0.0573     0.2204     0.9615
A_0     C     0.9449     0.472     0.0307
A_0     C     0.1026     0.6868     0.8448
A_0     C     0.5383     0.4758     0.4243
A_3     C     0.5104     0.3755     0.032
A_2     C     0.6597     0.7125     0.535
A_1     C     0.5932     0.2238     0.3442
A_0     C     0.0857     0.1121     0.6579
A_1     C     0.6081     0.8063     0.9284
A_0     C     0.6872     0.1849     0.7175
A_2     C     0.8146     0.4326     0.3161
A_1     C     0.3361     0.8276     0.7934
A_2     C     0.292     0.8116     0.846
A_0     C     0.0439     0.0669     0.3857
A_0     C     0.488     0.1437     0.4491
A_3     C     0.9121     0.7413     0.7197
A_2     C     0.7045     0.4178     0.3159
A_3     C     0.4273     0.7733     0.4298
A_3     C     0.6618     0.279     0.1255
A_1     C     0.6431     0.2422     0.6665
A_0     C     0.5728     0.1446     0.8574
A_3     C     0.4531     0.2687     0.4937
A_3     C     0.4893     0.7138     0.3328
A_3     C     0.3434     0.0611     0.4354
A_3     C     0.674     0.4307     0.8696
A_2     C     0.5882     0.4068     0.6112
A_3     C     0.6704     0.7101     0.8832
A_0     C     0.9532     0.6964     0.7289
A_3     C     0.1179     0.0904     0.971
A_3     C     0.0527     0.7045     0.7968
A_0     C     0.0203     0.2642     0.0521
A_3     C     0.1142     0.3138     0.9357
A_1     C     0.6001     0.0922     0.8635
A_3     C     0.8835     0.1613     0.2971
A_0     C     0.4152     0.3719     0.2968
A_1     C     0.1927     0.9682     0.3162
A_2     C     0.1102     0.9281     0.0068
A_2     C     0.2409     0.6487     0.7541
A_0     C     0.466     0.0109     0.1802
A_1     C     0.6675     0.6338     0.4438
A_2     C     0.658     0.353     0.0626
A_3     C     0.4081     0.0784     0.9268
A_0     C     0.4289     0.3817     0.32
A_1     C     0.6081     0.7799     0.1236
A_0     C     0.3173     0.2902     0.0604
A_3     C     0.3394     0.6982     0.8322
A_0     C     0.4584     0.1101     0.7596
A_1     C     0.3354     0.3526     0.0578
A_3     C     0.1373     0.7051     0.4227
A_2     C     0.4759     0.8169     0.5422
A_0     C     0.1502     0.6415     0.0572
A_0     C     0.5231     0.2528     0.1689
A_3     C     0.0468     0.0761     0.6946
A_1     C     0.3722     0.772     0.4923
A_3     C     0.72     0.6232     0.0178
A_0     C     0.1549     0.6902     0.6715
A_2     C     0.5517     0.6506     0.1153
A_0     C     0.084     0.0495     0.5148
A_2     C     0.2489     0.161     0.5469
A_2     C     0.8582     0.9658     0.2939
A_3     C     0.1026     0.8493     0.8259
A_0     C     0.7903     0.3674     0.0548
A_1     C     0.3543     0.5684     0.5967
A_0     C     0.5158     0.8444     0.0486
A_0     C     0.8996     0.3459     0.0582
A_3     C     0.8592     0.21     0.1634
A_1     C     0.0577     0.2071     0.8436
A_1     C     0.2308     0.2585     0.7157
A_3     C     0.4317     0.161     0.3854
A_3     C     0.9934     0.9783     0.5858
A_3     C     0.5848     0.3216     0.9254
A_3     C     0.3544     0.2162     0.2173
A_0     C     0.826     0.5578     0.5286
A_3     C     0.2101     0.4918     0.289
A_1     C     0.8269     0.4211     0.9456
A_0     C     0.9708     0.4399     0.5463
A_2     C     0.8143     0.9882     0.9887
A_3     C     0.4153     0.6734     0.0484
A_0     C     0.1835     0.1768     0.8847
A_1     C     0.7662     0.1983     0.5668
A_1     C     0.4902     0.7383     0.1476
A_0     C     0.3183     0.7069     0.6481
A_2     C     0.2469     0.9339     0.0959
A_2     C     0.5527     0.6881     0.9684
A_2     C     0.9719     0.1934     0.8932
A_0     C     0.8481     0.0515     0.2254
A_3     C     0.578     0.7502     0.688
A_0     C     0.7188     0.7349     0.4704
A_3     C     0.6458     0.1515     0.6523
A_0     C     0.4749     0.1065     0.9028
A_3     C     0.6713     0.886     0.8181
A_3     C     0.9367     0.0322     0.0168
A_2     C     0.8186     0.041     0.974
A_2     C     0.8174     0.4511     0.8183
A_1     C     0.2923     0.6753     0.5724
A_1     C     0.0742     0.2896     0.6329
A_1     C     0.8902     0.4467     0.7967
A_0     C     0.0191     0.9709     0.4067
A_0     C     0.9313     0.8077     0.3136
A_2     C     0.7544     0.2812     0.2905
A_2     C     0.1665     0.8028     0.0391
A_1     C     0.6334     0.1677     0.1496
A_3     C     0.0743     0.2543     0.5461
A_2     C     0.919     0.47     0.2246
A_0     C     0.6779     0.9241     0.4362
A_0     C     0.932     0.8272     0.2361
A_3     C     0.3147     0.6031     0.5722
A_3     C     0.2939     0.2885     0.4057
A_1     C     0.0798     0.7778     0.7494
A_2     C     0.0044     0.9796     0.9829
A_2     C     0.2785     0.3204     0.5931
A_0     C     0.6003     0.4084     0.2716
A_1     C     0.832     0.1134     0.7191
A_0     C     0.3447     0.4374     0.0268
A_3     C     0.3296     0.9084     0.1021
A_1     C     0.3409     0.8474     0.4141
A_2     C     0.2076     0.5703     0.4451
A_0     C     0.221     0.9493     0.2418
A_2     C     0.56     0.5309     0.3096
A_2     C     0.2243     0.2078     0.5246
A_2     C     0.5129     0.1494     0.1801
A_0     C     0.1286     0.4649     0.0211
A_3     C     0.9636     0.4054     0.2745
A_2     C     0.7938     0.3479     0.5207
A_2     C     0.0097     0.3984     0.5238
A_1     C     0.4968     0.4149     0.9465
A_1     C     0.1244     0.3843     0.2988
A_2     C     0.4949     0.951     0.7035
A_1     C     0.5481     0.151     0.7759
A_2     C     0.2223     0.857     0.0865
A_3     C     0.2728     0.079     0.1364
A_1     C     0.8644     0.065     0.7361
A_0     C     0.3934     0.3914     0.7654
A_2     C     0.7497     0.3479     0.143
A_0     C     0.8445     0.219     0.5667
A_2     C     0.097     0.2421     0.9521
A_0     C     0.0096     0.6486     0.3853
A_2     C     0.666     0.9964     0.3611
A_3     C     0.5242     0.5863     0.0824
A_2     C     0.9889     0.5778     0.6386
A_2     C     0.2052     0.8447     0.6154
A_3     C     0.5739     0.0495     0.6976
A_2     C     0.5681     0.2995     0.7821
A_3     C     0.4355     0.0563     0.967
A_1     C     0.9241     0.8919     0.6644
A_1     C     0.9193     0.5764     0.5012
A_0     C     0.7036     0.5532     0.5095
A_2     C     0.8224     0.7983     0.1925
A_3     C     0.6079     0.8047     0.5902
A_3     C     0.5926     0.5118     0.9384
A_2     C     0.7151     0.4423     0.1947
A_0     C     0.5015     0.1107     0.138
A_0     C     0.458     0.3397     0.234
A_2     C     0.6981     0.648     0.6141
A_3     C     0.4566     0.9139     0.4909
A_3     C     0.1149     0.5473     0.1541
A_2     C     0.8219     0.2113     0.6066
A_2     C     0.0342     0.6854     0.7659
A_0     C     0.4823     0.3875     0.155
A_3     C     0.1081     0.501     0.737
A_2     C     0.7493     0.608     0.7286
A_1     C     0.8585     0.7168     0.5599
A_2     C     0.3298     0.6655     0.9798
A_0     C     0.8543     0.503     0.3623
A_3     C     0.0959     0.2545     0.9582
A_1     C     0.0782     0.7917     0.0091
A_3     C     0.3792     0.8017     0.1525
A_2     C     0.3496     0.3114     0.4195
A_0     C     0.1752     0.2689     0.8302
A_1     C     0.5051     0.7937     0.5437
A_1     C     0.9052     0.4841     0.6217
A_0     C     0.8282     0.0268     0.0059
A_1     C     0.6938     0.8327     0.7485
A_0     C     0.9424     0.9882     0.7303
A_3     C     0.2556     0.6727     0.9671
A_3     C     0.3242     0.6954     0.9747
A_1     C     0.4553     0.358     0.8818
A_1     C     0.2961     0.8343     0.7446
A_1     C     0.0192     0.3051     0.033
A_3     C     0.0187     0.1309     0.1948
A_2     C     0.4384     0.677     0.414
A_2     C     0.8211     0.965     0.7103
A_0     C     0.8155     0.3794     0.5264
A_2     C     0.0008     0.4749     0.2216
A_1     C     0.0611     0.9874     0.3451
A_2     C     0.5369     0.5374     0.8199
A_3     C     0.1682     0.4905     0.4604
A_3     C     0.0371     0.3799     0.2119
A_0     C     0.3813     0.4226     0.7002
A_2     C     0.7261     0.201     0.5681
A_1     C     0.4848     0.0583     0.276
A_2     C     0.4189     0.5174     0.1315
A_0     C     0.4888     0.9386     0.8924
A_1     C     0.6025     0.8223     0.5131
A_3     C     0.0198     0.7979     0.493
A_0     C     0.1261     0.4646     0.778
A_2     C     0.2671     0.2134     0.8809
A_3     C     0.1846     0.6326     0.8141
A_1     C     0.3092     0.2586     0.3759
A_3     C     0.8118     0.188     0.5453
A_3     C     0.3398     0.7148     0.716
A_2     C     0.6839     0.9507     0.1166
A_1     C     0.5214     0.8328     0.4797
A_2     C     0.7401     0.4754     0.6311
A_3     C     0.8995     0.0981     0.9176
A_1     C     0.7681     0.5071     0.7911
A_1     C     0.3722     0.675     0.5138
A_0     C     0.5672     0.4145     0.8852
A_1     C     0.3357     0.2771     0.4286
A_2     C     0.667     0.7202     0.0973
A_0     C     0.6703     0.6715     0.0293
A_1     C     0.1484     0.0285     0.3274
A_3     C     0.2814     0.1776     0.0076
A_3     C     0.7969     0.8412     0.0346
A_1     C     0.97     0.1827     0.9404
A_2     C     0.353     0.1206     0.9499
A_1     C     0.4635     0.4048     0.3506
A_2     C     0.8725     0.2484     0.1551
A_2     C     0.6     0.1014     0.2086
A_1     C     0.0776     0.8343     0.7159
A_2     C     0.8378     0.6276     0.1257
A_2     C     0.6945     0.4188     0.6875
A_0     C     0.6275     0.4513     0.0741
A_1     C     0.8133     0.8565     0.1628
A_3     C     0.4392     0.4356     0.8839
A_1     C     0.934     0.3709     0.0833
A_0     C     0.3092     0.1924     0.5815
A_0     C     0.9575     0.1432     0.6523
A_1     C     0.4256     0.89     0.9035
A_2     C     0.748     0.5562     0.5616
A_1     C     0.8413     0.5838     0.6245
A_1     C     0.0438     0.3891     0.355
A_3     C     0.8618     0.4448     0.4279
A_1     C     0.8221     0.8901     0.8959
A_0     C     0.3184     0.7709     0.3274
A_3     C     0.4195     0.3056     0.2097
A_1     C     0.9656     0.5627     0.7403
A_2     C     0.721     0.195     0.2884
A_2     C     0.2205     0.678     0.6343
A_2     C     0.304     0.8276     0.05
A_1     C     0.3632     0.1771     0.9176
A_3     C     0.6795     0.7981     0.6295
A_0     C     0.9907     0.2905     0.8058
A_1     C     0.3246     0.797     0.883
A_1     C     0.3666     0.0758     0.4569
A_1     C     0.4126     0.028     0.2774
A_1     C     0.5159     0.8922     0.049
A_2     C     0.5699     0.1232     0.565
A_2     C     0.7653     0.773     0.1913
A_1     C     0.4071     0.862     0.8817
A_0     C     0.0762     0.5962     0.7988
A_2     C     0.9227     0.1888     0.024
A_1     C     0.4729     0.7509     0.6612
A_0     C     0.1384     0.2235     0.8168
A_1     C     0.7756     0.603     0.1102
A_3     C     0.5651     0.8092     0.1451
A_3     C     0.7434     0.4766     0.8244
A_0     C     0.7255     0.6675     0.3649
A_0     C     0.6196     0.2269     0.0735
A_2     C     0.2149     0.4908     0.001
A_2     C     0.9201     0.6027     0.6881
A_3     C     0.1004     0.4052     0.5237
A_3     C     0.8612     0.1119     0.0338
A_0     C     0.4185     0.6611     0.0417
A_2     C     0.8633     0.587     0.0658
A_0     C     0.2369     0.5632     0.956
A_2     C     0.3976     0.3951     0.953
A_2     C     0.8523     0.2028     0.3067
A_2     C     0.2328     0.3211     0.537
A_3     C     0.0584     0.5717     0.9332
A_2     C     0.1242     0.8882     0.5856
A_2     C     0.6975     0.3253     0.7796
A_3     C     0.1963     0.7753     0.7361
A_3     C     0.9577     0.3211     0.2814
A_0     C     0.504     0.4864     0.2274
A_0     C     0.3742     0.0903     0.3795
A_2     C     0.613     0.6574     0.6347
A_1     C     0.0533     0.4266     0.8207
A_2     C     0.762     0.4793     0.8927
A_3     C     0.9002     0.165     0.3558
A_3     C     0.0408     0.834     0.8723
A_1     C     0.2228     0.6977     0.5652
A_2     C     0.8219     0.9845     0.5879
A_3     C     0.6168     0.1569     0.0016
A_3     C     0.4182     0.5189     0.4805
A_3     C     0.7115     0.0023     0.8905
A_1     C     0.2197     0.6907     0.9694
A_2     C     0.5765     0.0873     0.3075
A_0     C     0.1071     0.7426     0.8174
A_0     C     0.6068     0.7295     0.2147
A_3     C     0.2638     0.7654     0.7535
A_2     C     0.5732     0.1661     0.9437
A_2     C     0.7981     0.8408     0.3027
A_1     C     0.0777     0.7827     0.5496
A_1     C     0.0929     0.6932     0.9478
A_0     C     0.8302     0.3787     0.8603
A_1     C     0.7171     0.0366     0.0786
A_0     C     0.086     0.1085     0.9269
A_3     C     0.4673     0.5833     0.9058
A_3     C     0.1017     0.561     0.3233
A_3     C     0.2031     0.9991     0.525
A_3     C     0.7548     0.9771     0.1957
A_0     C     0.2305     0.4141     0.858
A_0     C     0.1437     0.1127     0.8421
A_3     C     0.0453     0.5182     0.0807
A_1     C     0.9493     0.2279     0.46
A_2     C     0.9037     0.9137     0.1605
A_0     C     0.0352     0.2031     0.169
A_0     C     0.3577     0.0558     0.848
A_0     C     0.034     0.5896     0.2283
A_1     C     0.1375     0.1068     0.6088
A_1     C     0.8934     0.2054     0.0403
A_3     C     0.2301     0.8898     0.4962
A_3     C     0.3161     0.5722     0.4071
A_2     C     0.3853     0.1438     0.2765
A_3     C     0.9398     0.715     0.8914
A_1     C     0.1831     0.8985     0.3076
A_2     C     0.7502     0.8954     0.4858
A_1     C     0.7347     0.6231     0.3589
A_0     C     0.8267     0.5559     0.756
A_0     C     0.7184     0.0069     0.5342
A_3     C     0.5082     0.4     0.873
A_3     C     0.1347     0.6493     0.8917
A_3     C     0.4588     0.1769     0.4104
A_2     C     0.7511     0.7619     0.6381
A_2     C     0.192     0.2347     0.6996
A_3     C     0.9687     0.1251     0.4297
A_2     C     0.506     0.7799     0.2276
A_1     C     0.2913     0.569     0.9293
A_1     C     0.825     0.1007     0.7743
A_2     C     0.7991     0.3662     0.915
A_0     C     0.7181     0.1058     0.247
A_3     C     0.4803     0.9174     0.8264
A_2     C     0.9951     0.8593     0.6425
A_3     C     0.9963     0.9012     0.1665
A_3     C     0.6987     0.6601     0.0972
A_2     C     0.5482     0.9964     0.0854
A_3     C     0.7199     0.5497     0.4749
A_3     C     0.3911     0.597     0.5784
A_3     C     0.7735     0.7804     0.3508
A_0     C     0.3654     0.1871     0.1606
A_1     C     0.9494     0.6497     0.5904
A_2     C     0.2016     0.0756     0.7805
A_0     C     0.0151     0.6333     0.9266
A_1     C     0.0536     0.9795     0.2641
A_0     C     0.7781     0.3722     0.8138
A_3     C     0.8913     0.4231     0.5254
A_1     C     0.387     0.6354     0.5252
A_2     C     0.6755     0.8169     0.8011
A_2     C     0.8988     0.837     0.1339
A_3     C     0.7675     0.1339     0.7615
A_2     C     0.9412     0.2088     0.5717
A_3     C     0.4096     0.2584     0.2947
A_2     C     0.3815     0.7097     0.9173
A_1     C     0.035     0.6062     0.9194
A_1     C     0.084     0.1109     0.8515
A_2     C     0.2384     0.6846     0.031
A_1     C     0.8457     0.0945     0.0091
A_0     C     0.246     0.6313     0.7412
A_1     C     0.5608     0.0416     0.3978
A_0     C     0.2024     0.2623     0.1918
A_2     C     0.537     0.5328     0.1085
A_0     C     0.8739     0.9086     0.8831
A_3     C     0.647     0.4986     0.323
A_1     C     0.269     0.8043     0.038
A_1     C     0.0806     0.5944     0.4598
A_0     C     0.7973     0.4333     0.1893
A_1     C     0.0867     0.0898     0.7431
A_1     C     0.6491     0.6897     0.2018
A_1     C     0.0691     0.0788     0.7939
A_2     C     0.0463     0.7074     0.3642
A_3     C     0.1105     0.5864     0.986
A_2     C     0.7373     0.0315     0.6876
A_0     C     0.5027     0.1909     0.7348
A_3     C     0.5953     0.0513     0.6297
A_2     C     0.2076     0.2995     0.7091
A_3     C     0.5682     0.6604     0.2182
A_3     C     0.2901     0.6735     0.4304
A_3     C     0.9459     0.1784     0.9925
A_2     C     0.9374     0.2064     0.1318
A_0     C     0.2526     0.7607     0.5883
A_0     C     0.6342     0.9122     0.2636
A_3     C     0.0002     0.511     0.1523
A_3     C     0.9391     0.0212     0.618
A_1     C     0.4783     0.7257     0.9267
A_0     C     0.9587     0.0348     0.4898
A_2     C     0.7032     0.4685     0.8953
A_1     C     0.6733     0.4467     0.8405
A_0     C     0.8164     0.1301     0.3544
A_1     C     0.5564     0.2417     0.8888
A_3     C     0.9985     0.2663     0.8561
A_3     C     0.269     0.3584     0.54
A_1     C     0.6192     0.9165     0.2502
A_2     C     0.801     0.2495     0.6031
A_0     C     0.2963     0.6859     0.6097
A_1     C     0.6833     0.7325     0.0547
A_3     C     0.188     0.0363     0.0981
A_1     C     0.4632     0.396     0.2695
A_3     C     0.7389     0.9499     0.3816
A_3     C     0.7586     0.4126     0.1714
A_2     C     0.4156     0.9502     0.3844
A_1     C     0.4788     0.7084     0.8707
A_1     C     0.537     0.7332     0.2956
A_3     C     0.0343     0.7581     0.7716
A_1     C     0.6084     0.479     0.2018
A_0     C     0.6643     0.3383     0.8857
A_1     C     0.5782     0.6411     0.1947
A_3     C     0.6981     0.7332     0.426
A_3     C     0.1583     0.6504     0.6169
A_0     C     0.9801     0.0953     0.0033
A_0     C     0.5954     0.54     0.4476
A_2     C     0.6948     0.5574     0.3398
A_3     C     0.8325     0.3371     0.7195
A_2     C     0.7598     0.3588     0.9204
A_0     C     0.8924     0.9087     0.5783
A_3     C     0.1308     0.7841     0.9056
A_2     C     0.2093     0.8827     0.6488
A_1     C     0.2447     0.8293     0.864
A_0     C     0.4139     0.7332     0.6993
A_2     C     0.9944     0.1916     0.37
A_0     C     0.6855     0.1484     0.791
A_3     C     0.3028     0.8778     0.5426
A_2     C     0.1116     0.9253     0.7716
A_0     C     0.4519     0.7918     0.3621
A_3     C     0.2195     0.3986     0.3909
A_0     C     0.2452     0.0173     0.2046
A_1     C     0.4567     0.3512     0.7263
A_2     C     0.955     0.9436     0.8681
A_2     C     0.5014     0.5775     0.5503
A_3     C     0.81     0.3296     0.0456
A_0     C     0.3924     0.7718     0.8514
A_2     C     0.5638     0.8997     0.2372
A_0     C     0.7909     0.847     0.6709
A_0     C     0.7126     0.4165     0.9044
A_0     C     0.2056     0.1213     0.3228
A_3     C     0.9533     0.4954     0.9058
A_1     C     0.6888     0.8913     0.6802
A_3     C     0.8112     0.547     0.3264
A_3     C     0.2915     0.4752     0.925
A_2     C     0.8253     0.2999     0.2695
A_1     C     0.1486     0.2055     0.8495
A_0     C     0.7396     0.8188     0.3641
A_3     C     0.2738     0.736     0.3152
A_0     C     0.7096     0.7424     0.8832
A_2     C     0.4127     0.0892     0.6079
A_2     C     0.6482     0.8292     0.9176
A_0     C     0.3035     0.39     0.859
A_3     C     0.3735     0.886     0.5357
A_3     C     0.5862     0.741     0.4276
A_1     C     0.919     0.5378     0.1752
A_0     C     0.8182     0.8396     0.9504
A_0     C     0.8044     0.9397     0.1943
A_3     C     0.843     0.4305     0.9024
A_2     C     0.268     0.4858     0.2992
A_1     C     0.0075     0.5198     0.2746
A_3     C     0.3077     0.7935     0.8618
A_3     C     0.6981     0.5821     0.7893
A_3     C     0.9707     0.1191     0.8776
A_3     C     0.4714     0.609     0.2034
A_0     C     0.1573     0.6113     0.9848
A_3     C     0.6937     0.1982     0.292
A_0     C     0.4925     0.8935     0.2446
A_3     C     0.0192     0.7375     0.745
A_0     C     0.3803     0.8605     0.3966
A_2     C     0.0518     0.3224     0.6923
A_2     C     0.4178     0.554     0.2045
A_0     C     0.2669     0.4181     0.7759
A_1     C     0.9744     0.4591     0.3567
A_2     C     0.7825     0.7423     0.2742
A_2     C     0.4191     0.5588     0.9464
A_3     C     0.0492     0.2963     0.412
A_1     C     0.5299     0.3717     0.9801
A_2     C     0.9248     0.116     0.13
A_2     C     0.476     0.6861     0.9629
A_2     C     0.0543     0.2611     0.1899
A_2     C     0.0621     0.2762     0.6224
A_1     C     0.4624     0.4605     0.6699
A_3     C     0.6362     0.4541     0.4377
A_1     C     0.9442     0.3804     0.6558
A_0     C     0.9275     0.2494     0.7265
A_1     C     0.1186     0.0716     0.2209
A_3     C     0.0347     0.6316     0.9439
A_3     C     0.1766     0.8572     0.7334
A_1     C     0.7441     0.1507     0.3403
A_0     C     0.6323     0.783     0.5926
A_2     C     0.3321     0.7428     0.6133
A_0     C     0.9471     0.4295     0.7377
A_1     C     0.6099     0.5461     0.6369
A_2     C     0.7415     0.1123     0.364
A_1     C     0.609     0.2537     0.4943
A_1     C     0.4459     0.634     0.8581
A_0     C     0.5412     0.1861     0.2464
A_2     C     0.1579     0.682     0.6777
A_1     C     0.9035     0.2601     0.5117
A_1     C     0.1237     0.3158     0.0379
A_2     C     0.845     0.0971     0.9355
A_2     C     0.966     0.0192     0.4279
A_2     C     0.8142     0.3066     0.0808
A_3     C     0.1402     0.2667     0.3622
A_3     C     0.9849     0.3377     0.7652
A_2     C     0.9591     0.9693     0.6303
A_3     C     0.8892     0.9061     0.7816
A_1     C     0.5137     0.415     0.6056
A_0     C     0.2882     0.7798     0.788
A_1     C     0.6184     0.3072     0.6205
A_1     C     0.9254     0.9236     0.2275
A_2     C     0.0068     0.2592     0.4782
A_3     C     0.3256     0.5153     0.3625
A_0     C     0.5751     0.9335     0.3853
A_2     C     0.8718     0.1517     0.9467
A_2     C     0.0305     0.8345     0.0528
A_0     C     0.1989     0.0068     0.5562
A_3     C     0.821     0.5305     0.4773
A_1     C     0.1053     0.4423     0.6765
A_2     C     0.2112     0.3384     0.4812
A_0     C     0.7525     0.1855     0.4311
A_2     C     0.3143     0.8568     0.6732
A_0     C     0.7842     0.958     0.928
A_1     C     0.4728     0.68     0.3212
A_2     C     0.2512     0.3768     0.6629
A_1     C     0.7318     0.0223     0.4057
A_2     C     0.9139     0.0975     0.7738
A_3     C     0.0723     0.9924     0.73
A_0     C     0.0852     0.0405     0.0413
A_3     C     0.6876     0.4926     0.3896
A_2     C     0.1792     0.5715     0.944
A_2     C     0.1617     0.2174     0.1765
A_3     C     0.5893     0.2954     0.2463
A_3     C     0.2351     0.4434     0.1584
A_2     C     0.8163     0.7107     0.5647
A_0     C     0.0669     0.5644     0.6766
A_0     C     0.781     0.8919     0.8139
A_0     C     0.9321     0.7399     0.2038
A_0     C     0.9017     0.1701     0.6776
A_1     C     0.6834     0.2928     0.5639
A_3     C     0.8124     0.081     0.4904
A_2     C     0.3978     0.2574     0.568
A_1     C     0.2704     0.8598     0.9951
A_2     C     0.6414     0.6085     0.5149
A_3     C     0.1603     0.2228     0.2082
A_0     C     0.4452     0.5809     0.2177
A_2     C     0.5748     0.6945     0.8125
A_1     C     0.4271     0.3731     0.1572
A_2     C     0.2872     0.0325     0.9592
A_1     C     0.2628     0.7713     0.8331
A_0     C     0.3236     0.8382     0.6174
A_1     C     0.8834     0.8588     0.7942
A_0     C     0.5183     0.452     0.8498
A_0     C     0.1096     0.0623     0.2223
A_1     C     0.3743     0.7184     0.1631
A_2     C     0.6411     0.9273     0.675
A_1     C     0.6132     0.0088     0.383
A_1     C     0.5194     0.0344     0.61
A_3     C     0.8805     0.4411     0.4444
A_2     C     0.6035     0.6669     0.7516
A_2     C     0.5102     0.3844     0.394
A_0     C     0.4443     0.2109     0.2201
A_0     C     0.8498     0.302     0.0595
A_3     C     0.9658     0.7242     0.2868
A_2     C     0.8124     0.3129     0.6673
A_3     C     0.5816     0.3309     0.8983
A_2     C     0.285     0.1553     0.4904
A_3     C     0.4824     0.955     0.259
A_2     C     0.8077     0.478     0.2297
A_1     C     0.6334     0.5386     0.1667
A_3     C     0.6231     0.8596     0.5701
A_1     C     0.2797     0.2677     0.1046
A_2     C     0.6871     0.2256     0.9561
A_1     C     0.1717     0.4515     0.7057
A_2     C     0.6555     0.176     0.533
A_0     C     0.868     0.0611     0.7384
A_0     C     0.8477     0.2932     0.6929
A_3     C     0.1107     0.5096     0.2329
A_3     C     0.9464     0.8608     0.0689
A_0     C     0.7078     0.0018     0.5586
A_1     C     0.6365     0.4062     0.7806
A_0     C     0.7206     0.9538     0.7085
A_2     C     0.1594     0.654     0.0579
A_1     C     0.6411     0.1564     0.4622
A_1     C     0.197     0.2549     0.5526
A_2     C     0.1153     0.0474     0.7829
A_1     C     0.6593     0.4006     0.9806
A_2     C     0.1792     0.5055     0.3291
A_0     C     0.5399     0.8385     0.4681
A_3     C     0.6758     0.1783     0.2338
A_0     C     0.7594     0.3685     0.4399
A_2     C     0.4821     0.2615     0.4895
A_3     C     0.4821     0.0186     0.6766
A_3     C     0.1288     0.4129     0.9517
A_2     C     0.6427     0.4467     0.3505
A_2     C     0.869     0.6682     0.4643
A_3     C     0.0686     0.1634     0.2493
A_0     C     0.5029     0.513     0.5465
A_1     C     0.8106     0.4689     0.7411
A_1     C     0.7297     0.9121     0.0476
A_1     C     0.2246     0.528     0.6816
A_0     C     0.2934     0.8768     0.7429
A_0     C     0.3413     0.4204     0.921
A_0     C     0.422     0.0328     0.8268
A_2     C     0.0478     0.2766     0.281
A_3     C     0.8589     0.2325     0.2265
A_1     C     0.7789     0.7498     0.0707
A_3     C     0.7796     0.9357     0.6215
A_0     C     0.8331     0.8784     0.0814
A_1     C     0.9902     0.3478     0.1782
A_3     C     0.9671     0.5717     0.4243
A_1     C     0.7837     0.3382     0.0914
A_2     C     0.0536     0.6635     0.3082
A_3     C     0.3282     0.1085     0.5855
A_2     C     0.9641     0.5118     0.4092
A_1     C     0.1278     0.1583     0.4891
A_2     C     0.1798     0.7679     0.6541
A_2     C     0.5278     0.9418     0.7899
A_1     C     0.7196     0.9122     0.3644
A_1     C     0.0962     0.9677     0.9498
A_2     C     0.1233     0.3984     0.745
A_0     C     0.2603     0.6163     0.1803
A_1     C     0.8291     0.9086     0.751
A_1     C     0.7399     0.4498     0.8016
A_0     C     0.4213     0.0631     0.3888
A_2     C     0.1843     0.3116     0.3449
A_2     C     0.0878     0.3118     0.1561
A_0     C     0.9122     0.243     0.4644
A_1     C     0.4466     0.0976     0.5865
A_3     C     0.7363     0.1353     0.5948
A_1     C     0.3147     0.9121     0.4154
A_2     C     0.7245     0.1762     0.6026
A_2     C     0.5271     0.4493     0.3539
A_0     C     0.9051     0.393     0.8878
A_2     C     0.5293     0.5705     0.8296
A_2     C     0.0452     0.2201     0.1604
A_3     C     0.1979     0.8064     0.628
A_2     C     0.2506     0.5312     0.6831
A_0     C     0.5629     0.7503     0.3307
A_3     C     0.0218     0.3489     0.3867
A_2     C     0.3814     0.5594     0.2751
A_3     C     0.4201     0.447     0.4587
A_2     C     0.0394     0.6852     0.4981
A_3     C     0.9952     0.6027     0.4811
A_2     C     0.8347     0.5107     0.9961
A_3     C     0.9175     0.6451     0.2953
A_3     C     0.4744     0.6635     0.9484
A_1     C     0.2681     0.894     0.148
A_2     C     0.6929     0.3333     0.8625
A_0     C     0.5376     0.6105     0.4529
A_3     C     0.6982     0.0257     0.627
A_0     C     0.2391     0.7585     0.8401
A_2     C     0.7501     0.556     0.234
A_2     C     0.1024     0.0326     0.4102
A_2     C     0.6921     0.1596     0.6085
A_2     C     0.3065     0.9172     0.9641
A_2     C     0.7866     0.0832     0.3542
A_3     C     0.5589     0.3594     0.411
A_1     C     0.9587     0.5938     0.6499
A_1     C     0.7895     0.9274     0.5798
A_2     C     0.1043     0.0066     0.9957
A_3     C     0.0049     0.8809     0.663
A_1     C     0.9002     0.1315     0.1824
A_2     C     0.6714     0.1401     0.9941
A_1     C     0.783     0.3573     0.7758
A_2     C     0.4882     0.3261     0.2332
A_2     C     0.7359     0.5621     0.6323
A_3     C     0.3633     0.1217     0.8629
A_2     C     0.7336     0.8606     0.1771
A_2     C     0.7159     0.2771     0.7359
A_3     C     0.0328     0.5798     0.6561
A_0     C     0.3449     0.085     0.7463
A_2     C     0.0777     0.7128     0.1674
A_2     C     0.4645     0.9383     0.8514
A_3     C     0.6931     0.1564     0.6858
A_0     C     0.2267     0.8026     0.6826
A_0     C     0.354     0.5533     0.057
A_0     C     0.5213     0.9336     0.0355
A_3     C     0.3415     0.4882     0.86
A_0     C     0.228     0.8705     0.2786
A_2     C     0.2311     0.851     0.1551
A_3     C     0.9999     0.6216     0.9088
A_3     C     0.9396     0.4134     0.1619
A_3     C     0.2238     0.2679     0.373
A_2     C     0.3826     0.8165     0.6297
A_0     C     0.6608     0.2045     0.7555
A_1     C     0.9949     0.953     0.6535
A_3     C     0.1327     0.4113     0.3745
A_3     C     0.8816     0.7448     0.1042
A_3     C     0.068     0.8369     0.8876
A_0     C     0.3967     0.5059     0.5856
A_0     C     0.5084     0.2365     0.8826
A_1     C     0.0856     0.3434     0.2625
A_0     C     0.1651     0.8948     0.504
A_3     C     0.729     0.6329     0.2508
A_3     C     0.1342     0.9756     0.6521
A_0     C     0.6615     0.8051     0.8783
A_3     C     0.3623     0.5573     0.1384
A_2     C     0.4633     0.3785     0.2764
A_3     C     0.358     0.7229     0.4138
A_2     C     0.836     0.2684     0.0468
A_3     C     0.3939     0.0859     0.5033
A_0     C     0.5574     0.4935     0.0089
A_3     C     0.2906     0.4896     0.2674
A_0     C     0.8925     0.4186     0.2616
A_0     C     0.4751     0.2815     0.8274
A_2     C     0.6091     0.1365     0.9321
A_3     C     0.8365     0.856     0.5007
A_1     C     0.7664     0.2467     0.3681
A_1     C     0.7542     0.8521     0.8668
A_1     C     0.7539     0.2303     0.3804
A_1     C     0.6713     0.4469     0.3502
A_3     C     0.4438     0.4587     0.1551
A_3     C     0.489     0.0622     0.7923
A_0     C     0.7417     0.7944     0.1307
A_1     C     0.2041     0.6288     0.7633
A_0     C     0.3931     0.6925     0.5102
A_3     C     0.7398     0.8728     0.7374
A_3     C     0.3785     0.6162     0.5383
A_0     C     0.4865     0.3341     0.2853
A_3     C     0.7498     0.6555     0.8188
A_0     C     0.8694     0.955     0.384
A_3     C     0.3507     0.0354     0.1127
A_0     C     0.3682     0.5117     0.5066
A_3     C     0.2912     0.9559     0.2036
A_2     C     0.428     0.0064     0.0281
A_1     C     0.5371     0.5421     0.8182
A_0     C     0.4377     0.6786     0.598
A_0     C     0.2365     0.1335     0.1422
A_0     C     0.9006     0.7145     0.651
A_3     C     0.4206     0.01     0.4064
A_2     C     0.8489     0.8248     0.7923
A_0     C     0.9468     0.852     0.0835
A_2     C     0.2349     0.2458     0.1779
A_2     C     0.834     0.8176     0.395
A_0     C     0.9502     0.6502     0.4862
A_1     C     0.2632     0.706     0.5063
A_2     C     0.3358     0.1182     0.345
A_1     C     0.2598     0.6457     0.0789
A_1     C     0.1504     0.8682     0.2379
A_3     C     0.8945     0.9563     0.2757
A_0     C     0.7652     0.6138     0.2538
A_0     C     0.7725     0.1361     0.9238
A_2     C     0.886     0.275     0.1802
A_0     C     0.9776     0.615     0.3453
A_2     C     0.0846     0.288     0.841
A_1     C     0.431     0.1864     0.0006
A_2     C     0.652     0.4653     0.0661
A_3     C     0.0313     0.6861     0.9309
A_0     C     0.1802     0.1919     0.8165
A_0     C     0.2148     0.0694     0.1539
A_3     C     0.0798     0.2317     0.9102
A_3     C     0.6412     0.5204     0.3549
A_2     C     0.6632     0.7544     0.3322
A_3     C     0.3987     0.4996     0.8437
A_0     C     0.4646     0.6088     0.0799
A_1     C     0.9765     0.4988     0.6882
A_1     C     0.3141     0.1237     0.6219
A_2     C     0.7362     0.8746     0.1901
A_1     C     0.0801     0.8613     0.672
A_0     C     0.6661     0.6022     0.8427
A_2     C     0.8267     0.2786     0.9204
A_1     C     0.4072     0.0442     0.6712
A_2     C     0.0733     0.2912     0.694
A_1     C     0.2432     0.2987     0.4528
A_3     C     0.0017     0.6028     0.8647
A_0     C     0.3525     0.174     0.7071
A_3     C     0.3921     0.1854     0.1383
A_0     C     0.2214     0.5792     0.3573
A_3     C     0.2485     0.6631     0.1166
A_2     C     0.5817     0.1711     0.7002
A_2     C     0.5259     0.5901     0.0656
A_1     C     0.0075     0.5925     0.0538
A_1     C     0.8688     0.36     0.2781
A_1     C     0.4708     0.0529     0.4654
A_1     C     0.0317     0.3622     0.8015
A_3     C     0.9897     0.6991     0.4265
A_0     C     0.8411     0.4736     0.8724
A_2     C     0.6476     0.872     0.3092
A_3     C     0.165     0.9013     0.7957
A_3     C     0.2371     0.096     0.9105
A_0     C     0.5339     0.7816     0.9093
A_3     C     0.4677     0.286     0.372
A_2     C     0.3488     0.1542     0.9081
A_3     C     0.0198     0.0902     0.7763
A_1     C     0.7369     0.1165     0.2912
A_1     C     0.9311     0.8258     0.6613
A_0     C     0.0724     0.1278     0.2474
A_3     C     0.8014     0.729     0.0291
A_2     C     0.5966     0.1899     0.3304
A_3     C     0.4607     0.1478     0.8469
A_3     C     0.4276     0.4766     0.0682
A_2     C     0.318     0.2768     0.7659
A_1     C     0.5337     0.731     0.3087
A_1     C     0.4176     0.1136     0.0955
A_1     C     0.4888     0.8845     0.3026
A_2     C     0.0851     0.8961     0.5918
A_3     C     0.9425     0.5052     0.55
A_1     C     0.7291     0.1833     0.5108
A_0     C     0.8686     0.2785     0.0016
A_3     C     0.9699     0.2656     0.726
A_0     C     0.5164     0.3912     0.0392
A_3     C     0.3335     0.4549     0.5211
A_1     C     0.5083     0.2477     0.2054
A_2     C     0.9982     0.4342     0.2495
A_2     C     0.3321     0.9741     0.0028
A_3     C     0.486     0.4301     0.6487
A_3     C     0.9966     0.6455     0.3127
A_2     C     0.2668     0.2624     0.2422
A_1     C     0.179     0.57     0.2019
A_2     C     0.8352     0.7379     0.2212
A_0     C     0.5406     0.9661     0.3892
A_3     C     0.1085     0.4988     0.9545
A_1     C     0.59     0.7911     0.2667
A_2     C     0.0135     0.6381     0.8428
A_2     C     0.4799     0.0273     0.1181
A_2     C     0.0469     0.206     0.766
A_2     C     0.6942     0.4405     0.4525
A_2     C     0.9446     0.8058     0.1274
A_0     C     0.3094     0.1335     0.1573
A_2     C     0.0146     0.8571     0.5595
A_1     C     0.2643     0.5379     0.8687
A_0     C     0.336     0.0049     0.7496
A_3     C     0.5139     0.1642     0.977
A_1     C     0.4496     0.2839     0.0048
A_3     C     0.7689     0.7071     0.5806
A_0     C     0.7171     0.6915     0.6605
A_0     C     0.094     0.503     0.9946
A_3     C     0.9722     0.6493     0.3096
A_2     C     0.3856     0.6807     0.77
A_0     C     0.5089     0.6735     0.4677
A_3     C     0.9879     0.5586     0.0854
A_1     C     0.4252     0.1948     0.4181
A_1     C     0.1002     0.7234     0.9878
A_3     C     0.1878     0.6871     0.2609
A_1     C     0.7193     0.7429     0.4979
A_0     C     0.5829     0.8004     0.2649
A_1     C     0.8626     0.3198     0.2884
A_3     C     0.8015     0.3793     0.8886
A_3     C     0.6335     0.6849     0.7306
A_1     C     0.9098     0.2274     0.5787
A_2     C     0.9072     0.5329     0.6113
A_2     C     0.1943     0.0429     0.9339
A_1     C     0.3886     0.718     0.0651
A_0     C     0.0966     0.5024     0.1062
A_3     C     0.0311     0.3043     0.2033
A_3     C     0.1226     0.3298     0.9439
A_2     C     0.5824     0.2748     0.8029
A_2     C     0.1135     0.7733     0.0249
A_0     C     0.9994     0.3607     0.202
A_3     C     0.3589     0.1567     0.452
A_1     C     0.2609     0.8004     0.8316
A_1     C     0.4811     0.7577     0.7851
A_2     C     0.9753     0.7864     0.7133
A_3     C     0.9398     0.477     0.9434
A_0     C     0.1235     0.3586     0.3919
A_2     C     0.9095     0.3061     0.8837
A_2     C     0.7506     0.9406     0.8419
A_0     C     0.6495     0.8411     0.4177
A_0     C     0.6744     0.435     0.6468
A_2     C     0.5657     0.7957     0.1016
A_3     C     0.7357     0.8912     0.3242
A_3     C     0.6201     0.272     0.7164
A_3     C     0.2692     0.5989     0.0257
A_1     C     0.4618     0.3915     0.2726
A_1     C     0.5096     0.0294     0.5374
A_1     C     0.7326     0.5649     0.491
A_0     C     0.426     0.8139     0.1481
A_0     C     0.4583     0.915     0.537
A_2     C     0.7116     0.6929     0.561
A_2     C     0.987     0.1512     0.1623
A_1     C     0.8992     0.6537     0.9409
A_1     C     0.1708     0.7746     0.1474
A_0     C     0.9481     0.0752     0.1399
A_0     C     0.8269     0.5159     0.5865
A_0     C     0.2831     0.849     0.8451
A_0     C     0.7881     0.6036     0.5117
A_3     C     0.1266     0.4649     0.8085
A_2     C     0.1017     0.0469     0.6666
A_1     C     0.3261     0.8323     0.081
A_2     C     0.1854     0.2528     0.2408
A_3     C     0.1884     0.4767     0.9178
A_3     C     0.3629     0.2004     0.184
A_1     C     0.9829     0.4633     0.4675
A_1     C     0.1204     0.0998     0.6994
A_2     C     0.1583     0.0494     0.5614
A_3     C     0.2402     0.5082     0.1369
A_1     C     0.1476     0.5036     0.8539
A_1     C     0.6345     0.3966     0.2488
A_2     C     0.9971     0.2074     0.5999
A_3     C     0.808     0.5795     0.419
A_1     C     0.7552     0.2091     0.3695
A_2     C     0.7093     0.835     0.8297
A_0     C     0.4826     0.0801     0.5361
A_0     C     0.8481     0.4799     0.1903
A_2     C     0.8643     0.1857     0.1248
A_3     C     0.1514     0.806     0.3006
A_1     C     0.1275     0.2144     0.8168
A_1     C     0.5352     0.6376     0.0074
A_2     C     0.001     0.3827     0.4733
A_3     C     0.1843     0.7089     0.6984
A_0     C     0.9003     0.5356     0.5468
A_0     C     0.854     0.6809     0.7813
A_2     C     0.1362     0.7137     0.2626
A_2     C     0.9343     0.227     0.6943
A_2     C     0.4556     0.4804     0.6027
A_3     C     0.7948     0.3896     0.8232
A_0     C     0.4878     0.259     0.5934
A_0     C     0.9492     0.7915     0.9381
A_1     C     0.0026     0.695     0.4209
A_1     C     0.6737     0.3927     0.6695
A_0     C     0.9676     0.1367     0.1
A_1     C     0.5823     0.5331     0.8556
A_3     C     0.5442     0.4271     0.8917
A_0     C     0.2885     0.1451     0.1795
A_2     C     0.9882     0.1269     0.0239
A_3     C     0.2365     0.8676     0.376
A_2     C     0.0568     0.8724     0.9694
A_0     C     0.6322     0.5896     0.0122
A_2     C     0.3515     0.3046     0.6631
A_0     C     0.7516     0.6962     0.2265
A_1     C     0.0312     0.2996     0.4077
A_0     C     0.8456     0.0324     0.7314
A_0     C     0.7774     0.3373     0.9264
A_2     C     0.8051     0.5554     0.2142
A_0     C     0.9626     0.0056     0.4505
A_1     C     0.6837     0.5659     0.5387
A_2     C     0.9895     0.9684     0.4744
A_0     C     0.415     0.755     0.6231
A_2     C     0.2084     0.3199     0.6789
A_1     C     0.8854     0.5425     0.3938
A_1     C     0.263     0.6642     0.7846
A_1     C     0.3063     0.5872     0.1217
A_2     C     0.6958     0.5403     0.7164
A_1     C     0.1763     0.745     0.3085
A_0     C     0.9384     0.8057     0.4305
A_0     C     0.6075     0.868     0.5262
A_1     C     0.4836     0.7038     0.2154
A_0     C     0.4771     0.6477     0.7784
A_0     C     0.8821     0.5918     0.5388
A_0     C     0.7074     0.7854     0.398
A_1     C     0.0973     0.3448     0.8049
A_1     C     0.5126     0.0838     0.4419
A_2     C     0.1146     0.6532     0.6517
A_2     C     0.7477     0.6931     0.0956
A_3     C     0.942     0.7929     0.138
A_0     C     0.6412     0.2486     0.8372
A_3     C     0.2325     0.3801     0.6262
A_0     C     0.8692     0.8149     0.0067
A_3     C     0.872     0.3076     0.1721
A_0     C     0.3352     0.4069     0.8547
A_1     C     0.2701     0.697     0.4261
A_2     C     0.6492     0.9252     0.5835
A_1     C     0.6825     0.3051     0.3908
A_3     C     0.312     0.3291     0.3252
A_0     C     0.6598     0.0111     0.2353
A_0     C     0.1133     0.284     0.035
A_2     C     0.9664     0.6437     0.5462
A_3     C     0.3155     0.4505     0.3297
A_0     C     0.4359     0.6938     0.5958
A_1     C     0.7496     0.2076     0.6854
A_3     C     0.5557     0.9444     0.1832
A_3     C     0.6595     0.2288     0.5653
A_0     C     0.8095     0.8738     0.1064
A_2     C     0.4122     0.1575     0.7204
A_2     C     0.2181     0.7234     0.9688
A_2     C     0.8005     0.4577     0.3129
A_3     C     0.031     0.9112     0.8735
A_1     C     0.0075     0.0226     0.3383
A_2     C     0.5607     0.207     0.9148
A_2     C     0.6515     0.373     0.8648
A_3     C     0.8968     0.8063     0.708
A_1     C     0.4222     0.7887     0.307
A_0     C     0.4587     0.8057     0.2171
A_2     C     0.1674     0.6588     0.1292
A_2     C     0.3021     0.8811     0.4693
A_0     C     0.8246     0.3175     0.0513
A_2     C     0.8934     0.9115     0.6802
A_0     C     0.4491     0.3626     0.5839
A_2     C     0.9485     0.2468     0.959
A_3     C     0.6654     0.8605     0.0033
A_1     C     0.8534     0.6609     0.1077
A_0     C     0.7852     0.555     0.2324
A_1     C     0.8705     0.15     0.0723
A_1     C     0.1486     0.1642     0.7349
A_2     C     0.5888     0.0267     0.3493
A_2     C     0.7027     0.7136     0.3739
A_2     C     0.4585     0.5675     0.1542
A_3     C     0.2535     0.3799     0.0182
A_3     C     0.0768     0.6134     0.3782
A_3     C     0.9391     0.3951     0.3095
A_2     C     0.1093     0.0827     0.2442
A_2     C     0.603     0.3489     0.416
A_1     C     0.2521     0.2678     0.02
A_2     C     0.1922     0.0998     0.815
A_1     C     0.3158     0.1791     0.4401
A_1     C     0.47     0.4847     0.017
A_1     C     0.7276     0.2578     0.7679
A_3     C     0.5531     0.4324     0.6671
A_0     C     0.9631     0.9245     0.0458
A_1     C     0.6807     0.8299     0.9248
A_1     C     0.7813     0.9578     0.2598
A_2     C     0.0606     0.5562     0.2446
A_3     C     0.7035     0.1426     0.5256
A_2     C     0.2771     0.4709     0.8755
A_1     C     0.7779     0.1302     0.9079
A_3     C     0.2743     0.8838     0.0466
A_1     C     0.4127     0.8418     0.585
A_3     C     0.1389     0.4634     0.1737
A_0     C     0.7068     0.5134     0.0963
A_3     C     0.0528     0.7036     0.4773
A_0     C     0.6582     0.9619     0.5646
A_2     C     0.0018     0.5462     0.4243
A_2     C     0.3018     0.0498     0.4961
A_0     C     0.4325     0.3886     0.3616
A_2     C     0.2235     0.6949     0.6556
A_3     C     0.5549     0.9263     0.1741
A_1     C     0.9806     0.847     0.2098
A_0     C     0.6069     0.2771     0.9329
A_1     C     0.6807     0.7416     0.4383
A_3     C     0.8823     0.3251     0.6544
A_2     C     0.4678     0.4718     0.7445
A_1     C     0.7307     0.6468     0.8912
A_3     C     0.6812     0.3556     0.9083
A_3     C     0.6565     0.5327     0.0189
A_1     C     0.3373     0.742     0.0301
A_2     C     0.1565     0.6819     0.6858
A_0     C     0.4266     0.576     0.5008
A_1     C     0.7358     0.87     0.9788
A_2     C     0.2832     0.8799     0.4621
A_0     C     0.7936     0.9772     0.1753
A_0     C     0.8544     0.281     0.6701
A_3     C     0.3819     0.8391     0.65
A_1     C     0.4093     0.4431     0.8374
A_1     C     0.2465     0.9937     0.0714
A_0     C     0.5937     0.9039     0.5642
A_0     C     0.2039     0.2549     0.8913
A_0     C     0.1652     0.4584     0.944
A_3     C     0.8057     0.7043     0.1907
A_3     C     0.8611     0.0933     0.3306
A_0     C     0.4457     0.3258     0.4985
A_3     C     0.1119     0.94     0.5905
A_2     C     0.2113     0.8692     0.3488
A_3     C     0.23     0.4088     0.2571
A_1     C     0.6052     0.5358     0.6567
A_1     C     0.7281     0.9432     0.4819
A_0     C     0.0752     0.7004     0.2648
A_1     C     0.8277     0.1146     0.1051
A_0     C     0.0915     0.1437     0.3662
A_0     C     0.7758     0.5682     0.8053
A_3     C     0.8964     0.8652     0.7369
A_0     C     0.1739     0.7807     0.1518
A_2     C     0.4168     0.566     0.3063
A_0     C     0.962     0.3849     0.1419
A_0     C     0.5565     0.4736     0.1744
A_1     C     0.7945     0.4394     0.7324
A_2     C     0.019     0.9924     0.4236
A_0     C     0.9919     0.0985     0.7762
A_2     C     0.8688     0.3881     0.837
A_1     C     0.1811     0.6615     0.6956
A_3     C     0.5756     0.8555     0.7173
A_1     C     0.6071     0.7254     0.8208
A_0     C     0.0309     0.6719     0.9229
A_1     C     0.4459     0.2624     0.3087
A_3     C     0.6423     0.8759     0.2564
A_0     C     0.8665     0.7351     0.4981
A_1     C     0.1916     0.9097     0.5416
A_3     C     0.6134     0.462     0.1309
A_2     C     0.9591     0.7313     0.0859
A_1     C     0.6135     0.9788     0.4099
A_1     C     0.2567     0.1124     0.5892
A_2     C     0.6229     0.0279     0.9845
A_0     C     0.4331     0.8097     0.3472
A_2     C     0.0405     0.2592     0.9141
A_1     C     0.2657     0.5821     0.6536
A_3     C     0.3619     0.8428     0.0927
A_0     C     0.7525     0.4843     0.1515
A_0     C     0.6929     0.0947     0.1225
A_1     C     0.6553     0.1183     0.3367
A_0     C     0.6056     0.9102     0.7461
A_1     C     0.4718     0.0752     0.3818
A_3     C     0.6338     0.6988     0.605
A_1     C     0.3791     0.9708     0.9751
A_3     C     0.6702     0.4754     0.5379
A_0     C     0.9439     0.5614     0.8316
A_0     C     0.3349     0.5868     0.1204
A_2     C     0.0158     0.208     0.4169
A_2     C     0.2661     0.4862     0.1244
A_2     C     0.259     0.0378     0.9984
A_2     C     0.8572     0.3289     0.0859
A_2     C     0.4203     0.2158     0.702
A_2     C     0.4874     0.9827     0.7784
A_2     C     0.6696     0.3823     0.8156
A_3     C     0.4872     0.0912     0.1254
A_1     C     0.0429     0.5698     0.2257
A_2     C     0.9494     0.1565     0.4169
A_2     C     0.7464     0.5146     0.5397
A_3     C     0.678     0.5889     0.1205
A_2     C     0.4806     0.8701     0.3935
A_2     C     0.4376     0.9539     0.0939
A_3     C     0.8357     0.204     0.3781
A_1     C     0.035     0.4932     0.236
A_3     C     0.3879     0.0237     0.166
A_1     C     0.0476     0.5116     0.6826
A_1     C     0.5433     0.7058     0.2823
A_2     C     0.8501     0.3132     0.0702
A_1     C     0.1215     0.9403     0.055
A_1     C     0.1727     0.7047     0.4817
A_0     C     0.3884     0.9157     0.3491
A_0     C     0.3811     0.8015     0.8646
A_0     C     0.7279     0.3223     0.5919
A_0     C     0.2832     0.8076     0.2081
A_1     C     0.8659     0.4554     0.0176
A_1     C     0.6703     0.4832     0.514
A_2     C     0.4864     0.3488     0.9387
A_0     C     0.2618     0.5285     0.2835
A_2     C     0.0845     0.1296     0.3186
A_0     C     0.9951     0.7689     0.09
A_0     C     0.43     0.0744     0.8654
A_2     C     0.8442     0.713     0.0788
A_3     C     0.9463     0.1488     0.9402
A_1     C     0.2013     0.8541     0.6458
A_0     C     0.9811     0.7823     0.7518
A_2     C     0.2739     0.3689     0.2728
A_1     C     0.5566     0.1887     0.1618
A_1     C     0.5857     0.3209     0.4514
A_2     C     0.2499     0.2345     0.1982
A_1     C     0.8778     0.1875     0.1304
A_2     C     0.6787     0.8706     0.6845
A_2     C     0.9824     0.274     0.1821
A_2     C     0.648     0.0827     0.7509
A_3     C     0.9379     0.4874     0.3047
A_0     C     0.7838     0.2541     0.7919
A_0     C     0.128     0.5284     0.3756
A_2     C     0.0358     0.4546     0.204
A_2     C     0.1114     0.3233     0.3252
A_1     C     0.1606     0.5666     0.8613
A_0     C     0.788     0.2676     0.8286
A_1     C     0.1991     0.8239     0.3161
A_3     C     0.2719     0.9372     0.4592
A_1     C     0.5911     0.1678     0.0397
A_2     C     0.0475     0.1151     0.1233
A_3     C     0.524     0.2742     0.774
A_1     C     0.51     0.3674     0.8166
A_2     C     0.3399     0.9584     0.124
A_1     C     0.6071     0.6387     0.7372
A_2     C     0.7987     0.7772     0.5311
A_0     C     0.8734     0.3992     0.999
A_2     C     0.5615     0.3267     0.9611
A_2     C     0.5038     0.7079     0.5832
A_1     C     0.1668     0.5729     0.0102
A_3     C     0.1349     0.713     0.7532
A_1     C     0.9046     0.334     0.0978
A_0     C     0.9635     0.8523     0.4732
A_3     C     0.2212     0.5801     0.729
A_0     C     0.1549     0.7965     0.5907
A_1     C     0.1808     0.7664     0.0703
A_3     C     0.1316     0.5393     0.6211
A_2     C     0.7913     0.9172     0.0254
A_2     C     0.5634     0.0799     0.6598
A_2     C     0.4045     0.4654     0.7475
A_1     C     0.1355     0.2536     0.4716
A_0     C     0.4386     0.7474     0.8637
A_0     C     0.413     0.1125     0.8991
A_3     C     0.0685     0.5561     0.1876
A_1     C     0.1272     0.1437     0.1965
A_0     C     0.9071     0.0233     0.9391
A_3     C     0.7733     0.561     0.1766
A_3     C     0.6554     0.6716     0.3281
A_1     C     0.1252     0.2239     0.8416
A_0     C     0.098     0.8369     0.3306
A_0     C     0.2527     0.1816     0.9525
A_0     C     0.9517     0.5432     0.082
A_0     C     0.4273     0.9904     0.083
A_3     C     0.0754     0.5407     0.8724
A_3     C     0.8902     0.4332     0.7843
A_3     C     0.0023     0.4086     0.509
A_2     C     0.2559     0.2019     0.8457
A_3     C     0.1912     0.2431     0.7955
A_3     C     0.2582     0.182     0.9206
A_1     C     0.9736     0.2199     0.3476
A_0     C     0.152     0.7688     0.4362
A_3     C     0.1043     0.3664     0.2851
A_2     C     0.1366     0.9325     0.2901
A_2     C     0.4082     0.0308     0.3911
A_3     C     0.9305     0.6627     0.4079
A_1     C     0.978     0.3613     0.2918
A_2     C     0.1598     0.8503     0.0787
A_2     C     0.2528     0.8739     0.0364
A_1     C     0.9278     0.8212     0.8726
A_2     C     0.5642     0.8691     0.5833
A_3     C     0.9695     0.0555     0.673
A_3     C     0.5014     0.443     0.0786
A_3     C     0.6011     0.4189     0.0647
A_0     C     0.8294     0.2862     0.0927
A_0     C     0.5942     0.6357     0.1563
A_0     C     0.6098     0.5432     0.3529
A_0     C     0.1194     0.8791     0.561
A_2     C     0.0128     0.7344     0.8817
A_3     C     0.4734     0.3485     0.1984
A_2     C     0.716     0.8476     0.0997
A_3     C     0.5325     0.4567     0.9657
A_0     C     0.3148     0.081     0.5381
A_0     C     0.2252     0.0003     0.7525
A_1     C     0.9927     0.5859     0.7311
A_0     C     0.2332     0.6319     0.4267
A_1     C     0.3176     0.5345     0.8818
A_0     C     0.0005     0.8759     0.7865
A_0     C     0.8308     0.4763     0.2309
A_2     C     0.4263     0.2269     0.4661
A_0     C     0.8819     0.8789     0.7997
A_1     C     0.2472     0.0197     0.9721
A_0     C     0.0283     0.3023     0.0256
A_1     C     0.7649     0.9183     0.1607
A_1     C     0.5633     0.5669     0.5966
A_1     C     0.4971     0.026     0.083
A_1     C     0.394     0.993     0.6791
A_3     C     0.5365     0.5318     0.5674
A_2     C     0.2372     0.1309     0.4433
A_1     C     0.0624     0.1388     0.6558
A_3     C     0.6833     0.2031     0.4206
A_0     C     0.8419     0.5263     0.3087
A_2     C     0.6636     0.9742     0.1149
A_0     C     0.4119     0.8668     0.3615
A_2     C     0.7936     0.018     0.2411
A_0     C     0.0674     0.7844     0.5462
A_3     C     0.0704     0.3489     0.2447
A_1     C     0.4197     0.2987     0.3989
A_0     C     0.157     0.07     0.3837
A_2     C     0.9581     0.5871     0.983
A_1     C     0.3566     0.2418     0.9658
A_2     C     0.7212     0.5308     0.9326
A_3     C     0.8649     0.668     0.3254
A_0     C     0.3368     0.9824     0.4417
A_3     C     0.878     0.0576     0.3602
A_2     C     0.1513     0.3092     1.0
A_2     C     0.1219     0.0702     0.0835
A_0     C     0.2568     0.0678     0.8307
A_1     C     0.5189     0.0508     0.7726
A_3     C     0.4481     0.3687     0.107
A_0     C     0.7042     0.2112     0.0223
A_3     C     0.1917     0.2686     0.5161
A_0     C     0.1228     0.9212     0.8589
A_0     C     0.1199     0.5566     0.3116
A_2     C     0.3492     0.7349     0.9328
A_3     C     0.7423     0.9329     0.7436
A_0     C     0.8525     0.5332     0.5554
A_1     C     0.5123     0.2181     0.9713
A_0     C     0.0739     0.9121     0.638
A_0     C     0.3036     0.2481     0.2961
A_1     C     0.36     0.5685     0.9718
A_1     C     0.7407     0.9028     0.0243
A_1     C     0.5226     0.7616     0.4677
A_2     C     0.6139     0.92     0.2495
A_0     C     0.6527     0.3899     0.7568
A_1     C     0.9243     0.0323     0.4799
A_0     C     0.8699     0.7353     0.092
A_3     C     0.7139     0.6268     0.4993
A_0     C     0.3778     0.2492     0.4192
A_0     C     0.7235     0.7352     0.347
A_2     C     0.2895     0.8173     0.33
A_3     C     0.7565     0.2894     0.4563
A_1     C     0.6597     0.1207     0.4903
A_3     C     0.5812     0.8091     0.7026
A_1     C     0.3142     0.9278     0.9701
A_1     C     0.5746     0.0435     0.0165
A_3     C     0.0247     0.2075     0.3365
A_2     C     0.4709     0.3356     0.5302
A_2     C     0.898     0.0245     0.0121
A_2     C     0.9652     0.6006     0.734
A_1     C     0.0703     0.0512     0.3511
A_1     C     0.7118     0.9292     0.0528
A_3     C     0.2672     0.4189     0.0029
A_2     C     0.7287     0.7773     0.0781
A_1     C     0.4524     0.3019     0.2375
A_1     C     0.5339     0.8058     0.5557
A_2     C     0.3368     0.607     0.0851
A_0     C     0.3093     0.8603     0.7497
A_1     C     0.6941     0.0949     0.0229
A_3     C     0.3774     0.9146     0.6801
A_0     C     0.4014     0.6967     0.3362
A_3     C     0.8026     0.6148     0.1902
A_1     C     0.6684     0.4652     0.8588
A_3     C     0.6612     0.837     0.8479
A_3     C     0.8938     0.3668     0.035
A_0     C     0.3089     0.6894     0.5991
A_2     C     0.3055     0.336     0.0742
A_0     C     0.7234     0.4142     0.6886
A_2     C     0.9614     0.5514     0.349
A_3     C     0.3788     0.0009     0.995
A_1     C     0.5939     0.6298     0.0503
A_1     C     0.6995     0.1146     0.8863
A_1     C     0.2822     0.5088     0.7197
A_0     C     0.4894     0.0299     0.4386
A_1     C     0.7632     0.036     0.3718
A_1     C     0.5378     0.1403     0.1652
A_2     C     0.8292     0.0308     0.0521
A_0     C     0.9268     0.7903     0.739
A_3     C     0.3622     0.6291     0.388
A_2     C     0.0379     0.8014     0.3975
A_2     C     0.2046     0.754     0.0556
A_3     C     0.8144     0.7993     0.4577
A_0     C     0.31     0.9233     0.2499
A_3     C     0.8997     0.5617     0.2417
A_3     C     0.0855     0.4806     0.7888
A_1     C     0.8301     0.9353     0.5366
A_1     C     0.7315     0.2692     0.8724
A_3     C     0.5067     0.0462     0.2577
A_1     C     0.7693     0.9846     0.7079
A_3     C     0.5116     0.7701     0.395
A_2     C     0.4952     0.5233     0.3133
A_2     C     0.7994     0.0219     0.5477
A_2     C     0.8749     0.9928     0.2542
A_2     C     0.3599     0.1824     0.7986
A_3     C     0.2717     0.0891     0.5157
A_0     C     0.3165     0.7091     0.1502
A_3     C     0.0369     0.1888     0.0728
A_0     C     0.1333     0.9717     0.76
A_3     C     0.1707     0.3211     0.2223
A_0     C     0.1525     0.6266     0.4447
A_3     C     0.405     0.8276     0.2047
A_0     C     0.094     0.7588     0.7577
A_1     C     0.8635     0.0279     0.0928
A_1     C     0.451     0.2271     0.8748
A_3     C     0.3152     0.9986     0.4728
A_1     C     0.1948     0.0097     0.9847
A_0     C     0.8913     0.4539     0.0975
A_0     C     0.621     0.8225     0.9516
A_2     C     0.779     0.0758     0.8351
A_0     C     0.2181     0.5933     0.1968
A_2     C     0.9234     0.3106     0.9813
A_0     C     0.1487     0.1092     0.212
A_0     C     0.3493     0.7266     0.0693
A_2     C     0.3086     0.2201     0.681
A_2     C     0.3706     0.7538     0.4555
A_2     C     0.2568     0.4511     0.3004
A_0     C     0.8742     0.7908     0.6061
A_2     C     0.1035     0.7946     0.0699
A_0     C     0.3211     0.9462     0.0829
A_2     C     0.6997     0.5686     0.4583
A_0     C     0.907     0.8883     0.1736
A_2     C     0.015     0.532     0.5731
A_2     C     0.1228     0.4234     0.5998
A_2     C     0.5871     0.0422     0.1518
A_1     C     0.2446     0.1259     0.6927
A_1     C     0.8885     0.9323     0.9792
A_1     C     0.8756     0.4082     0.3034
A_1     C     0.3405     0.9659     0.2841
A_2     C     0.833     0.7833     0.4845
A_1     C     0.7177     0.1356     0.3375
A_0     C     0.637     0.5117     0.5818
A_1     C     0.1932     0.4914     0.0154
A_2     C     0.5056     0.9558     0.044
A_3     C     0.9633     0.7125     0.2699
A_2     C     0.0485     0.3812     0.6867
A_3     C     0.7215     0.7896     0.2174
A_3     C     0.1523     0.2454     0.9305
A_1     C     0.2111     0.7497     0.9559
A_1     C     0.8183     0.6554     0.7387
A_1     C     0.1346     0.8131     0.6173
A_1     C     0.7703     0.9979     0.5032
A_3     C     0.1897     0.65     0.0628
A_1     C     0.3839     0.0501     0.0473
A_3     C     0.7176     0.6394     0.7279
A_0     C     0.9486     0.0394     0.8766
A_1     C     0.4953     0.3041     0.4343
A_2     C     0.6485     0.3686     0.7603
A_3     C     0.7066     0.3308     0.8778
A_0     C     0.1942     0.7276     0.7386
A_3     C     0.6364     0.3712     0.1904
A_0     C     0.8846     0.2328     0.6723
A_2     C     0.3025     0.0     0.4696
A_3     C     0.0089     0.999     0.0985
A_1     C     0.8563     0.4459     0.389
A_2     C     0.5511     0.6616     0.7972
A_0     C     0.5344     0.23     0.3648
A_3     C     0.5333     0.6393     0.9414
A_2     C     0.7706     0.6001     0.315
A_0     C     0.742     0.6717     0.4388
A_0     C     0.5295     0.5365     0.1564
A_3     C     0.895     0.229     0.6061
A_1     C     0.9668     0.0613     0.4235
A_1     C     0.1082     0.6403     0.2507
A_2     C     0.8998     0.1748     0.9385
A_3     C     0.2501     0.3374     0.762
A_1     C     0.9205     0.7714     0.6839
A_1     C     0.1211     0.3939     0.2907
A_1     C     0.2415     0.2     0.3711
A_2     C     0.5017     0.6037     0.0434
A_3     C     0.3046     0.1136     0.5251
A_1     C     0.1024     0.7307     0.86
A_1     C     0.2118     0.9346     0.2996
A_2     C     0.9758     0.1537     0.2562
A_2     C     0.9543     0.0144     0.5559
A_2     C     0.3713     0.6719     0.3417
A_0     C     0.9045     0.0469     0.5413
A_3     C     0.7878     0.0767     0.8809
A_3     C     0.2988     0.7336     0.3464
A_1     C     0.8404     0.7795     0.8205
A_3     C     0.4108     0.5612     0.0258
A_0     C     0.286     0.2233     0.8488
A_3     C     0.3743     0.3321     0.962
A_2     C     0.5617     0.2145     0.5647
A_0     C     0.8132     0.0957     0.6064
A_3     C     0.6427     0.9331     0.9638
A_3     C     0.3364     0.4799     0.8468
A_3     C     0.3559     0.266     0.9015
A_0     C     0.8243     0.9083     0.7702
A_0     C     0.4986     0.275     0.1561
A_3     C     0.1405     0.0974     0.4306
A_2     C     0.3984     0.4065     0.4455
A_1     C     0.1188     0.144     0.0527
A_3     C     0.8695     0.3602     0.4622
A_2     C     0.3872     0.8668     0.6918
A_3     C     0.0737     0.7159     0.7111
A_1     C     0.3578     0.2829     0.6231
A_3     C     0.5305     0.2188     0.4715
A_1     C     0.3498     0.3809     0.159
A_1     C     0.4591     0.7631     0.6569
A_3     C     0.4423     0.4896     0.494
A_3     C     0.2495     0.391     0.2354
A_3     C     0.6196     0.8307     0.3665
A_1     C     0.3828     0.2041     0.1499
A_0     C     0.1673     0.8433     0.1509
A_1     C     0.4669     0.1668     0.2006
A_0     C     0.3     0.6919     0.0914
A_0     C     0.2022     0.6445     0.9529
A_0     C     0.2366     0.2498     0.4612
A_1     C     0.7025     0.679     0.9225
A_0     C     0.8599     0.7527     0.8854
A_0     C     0.0244     0.9018     0.3806
A_3     C     0.8694     0.6693     0.6157
A_0     C     0.611     0.546     0.9994
A_2     C     0.6627     0.7655     0.0262
A_0     C     0.8829     0.2752     0.4683
A_1     C     0.6387     0.0749     0.5167
A_1     C     0.4727     0.7023     0.1379
A_0     C     0.5045     0.3326     0.7048
A_0     C     0.862     0.295     0.0191
A_3     C     0.7294     0.1086     0.1449
A_1     C     0.9141     0.4454     0.05
A_1     C     0.7141     0.5414     0.047
A_2     C     0.9814     0.6613     0.4839
A_0     C     0.5869     0.5031     0.7301
A_0     C     0.0151     0.493     0.1465
A_1     C     0.9018     0.9748     0.7118
A_3     C     0.8011     0.865     0.0532
A_1     C     0.4029     0.779     0.0175
A_0     C     0.2841     0.9034     0.6695
A_1     C     0.6924     0.6307     0.8126
A_2     C     0.8732     0.7671     0.8122
A_0     C     0.7171     0.8437     0.8865
A_2     C     0.5916     0.6346     0.9471
A_1     C     0.4937     0.4255     0.7043
A_1     C     0.7943     0.4678     0.3686
A_0     C     0.3152     0.354     0.3738
A_0     C     0.1643     0.624     0.2358
A_2     C     0.4462     0.2876     0.4658
A_3     C     0.9512     0.8738     0.0158
A_2     C     0.903     0.3554     0.995
A_1     C     0.7694     0.5714     0.5127
A_0     C     0.8573     0.3498     0.6976
A_2     C     0.9242     0.6884     0.8101
A_2     C     0.4526     0.6717     0.38
A_0     C     0.0473     0.3258     0.8964
A_1     C     0.8483     0.1401     0.3153
A_2     C     0.8606     0.5309     0.6049
A_0     C     0.9668     0.7661     0.1129
A_0     C     0.2099     0.7505     0.0299
A_1     C     0.9473     0.1694     0.6162
A_1     C     0.9467     0.5852     0.9314
A_0     C     0.614     0.9452     0.7079
A_1     C     0.2095     0.2611     0.1718
A_0     C     0.2065     0.1433     0.5235
A_1     C     0.9122     0.5724     0.8704
A_2     C     0.7024     0.0696     0.2344
A_1     C     0.9113     0.5029     0.7103
A_0     C     0.414     0.9451     0.7461
A_2     C     0.3579     0.5201     0.3742
A_1     C     0.075     0.596     0.6829
A_1     C     0.3684     0.6282     0.2609
A_3     C     0.4931     0.0658     0.7617
A_0     C     0.8467     0.1395     0.2416
A_2     C     0.3782     0.6535     0.4423
A_1     C     0.2007     0.4982     0.4278
A_1     C     0.0112     0.1057     0.0599
A_0     C     0.6469     0.2871     0.715
A_1     C     0.1048     0.1826     0.5101
A_2     C     0.9032     0.8255     0.2949
A_3     C     0.7114     0.7106     0.9912
A_1     C     0.2801     0.245     0.6391
A_3     C     0.4215     0.1352     0.7603
A_3     C     0.1203     0.756     0.4991
A_2     C     0.5849     0.7764     0.5075
A_1     C     0.3866     0.2744     0.4101
A_0     C     0.1647     0.6584     0.0182
A_3     C     0.7509     0.5028     0.8464
A_3     C     0.0881     0.4929     0.8818
A_2     C     0.4386     0.6047     0.0877
A_0     C     0.1605     0.8934     0.625
A_0     C     0.3286     0.8376     0.6824
A_0     C     0.2225     0.5302     0.7717
A_2     C     0.1349     0.9708     0.6285
A_2     C     0.5834     0.4204     0.2796
A_0     C     0.3169     0.2442     0.2704
A_2     C     0.5647     0.8712     0.7934
A_1     C     0.4415     0.3292     0.7025
A_1     C     0.748     0.0884     0.5356
A_0     C     0.2354     0.6645     0.5815
A_3     C     0.4564     0.9479     0.1973
A_1     C     0.1276     0.0878     0.5338
A_1     C     0.2351     0.4597     0.7122
A_1     C     0.6184     0.0556     0.3089
A_3     C     0.2005     0.5341     0.1171
A_1     C     0.1972     0.1033     0.9345
A_3     C     0.3064     0.7925     0.7577
A_3     C     0.7558     0.619     0.6902
A_0     C     0.3789     0.8529     0.236
A_1     C     0.3328     0.8309     0.3256
A_0     C     0.1044     0.5378     0.1115
A_1     C     0.0973     0.9862     0.3683
A_2     C     0.7436     0.4544     0.3147
A_2     C     0.0837     0.6662     0.6713
A_0     C     0.6631     0.5866     0.7648
A_0     C     0.3842     0.1572     0.141
A_2     C     0.2397     0.6674     0.2264
A_3     C     0.0467     0.7221     0.9716
A_0     C     0.8825     0.5784     0.1305
A_0     C     0.6513     0.9553     0.3176
A_1     C     0.4087     0.1126     0.7839
A_2     C     0.0769     0.9034     0.1116
A_3     C     0.2439     0.6487     0.4883
A_0     C     0.5043     0.8969     0.377
A_1     C     0.2277     0.2892     0.8148
A_2     C     0.7619     0.8442     0.5507
A_2     C     0.7934     0.6793     0.8173
A_0     C     0.4039     0.0334     0.3412
A_3     C     0.3459     0.6829     0.2911
A_0     C     0.2926     0.948     0.9567
A_2     C     0.094     0.3545     0.6176
A_3     C     0.1807     0.0727     0.9717
A_0     C     0.915     0.1984     0.2167
A_0     C     0.911     0.1818     0.8986
A_0     C     0.9019     0.2562     0.8988
A_2     C     0.4017     0.6709     0.2489
A_2     C     0.9849     0.2585     0.9152
A_3     C     0.1769     0.5837     0.0138
A_0     C     0.5319     0.277     0.2741
A_1     C     0.5384     0.1862     0.605
A_3     C     0.3576     0.7263     0.8736
A_2     C     0.2719     0.6315     0.1311
A_0     C     0.1179     0.8976     0.2047
A_1     C     0.4741     0.216     0.6065
A_0     C     0.659     0.0822     0.5489
A_2     C     0.4323     0.5998     0.7341
A_0     C     0.5004     0.7349     0.2148
A_2     C     0.6522     0.7472     0.9205
A_0     C     0.4344     0.7767     0.695
A_2     C     0.5293     0.7051     0.8627
A_1     C     0.2088     0.9727     0.5012
A_3     C     0.3267     0.8436     0.5705
A_2     C     0.6251     0.5051     0.1227
A_2     C     0.7627     0.2571     0.9666
A_3     C     0.1799     0.6063     0.7686
A_0     C     0.5351     0.6228     0.5127
A_2     C     0.6792     0.142     0.9063
A_1     C     0.9104     0.1886     0.4754
A_0     C     0.1931     0.5266     0.9181
A_0     C     0.4072     0.8182     0.0909
A_3     C     0.7666     0.5098     0.7439
A_1     C     0.8369     0.8015     0.1675
A_1     C     0.6427     0.7405     0.9475
A_0     C     0.4211     0.4586     0.8028
A_0     C     0.4057     0.3292     0.2645
A_1     C     0.2242     0.4398     0.1032
A_1     C     0.6182     0.3197     0.2193
A_0     C     0.2709     0.9575     0.6612
A_1     C     0.3378     0.2243     0.6783
A_3     C     0.6624     0.0145     0.6017
A_0     C     0.072     0.8608     0.8051
A_3     C     0.5394     0.7867     0.358
A_1     C     0.3456     0.6995     0.4091
A_0     C     0.5484     0.4453     0.224
A_3     C     0.1583     0.3661     0.6758
A_2     C     0.0648     0.6891     0.4332
A_1     C     0.4168     0.9716     0.0373
A_1     C     0.7633     0.9315     0.1843
A_2     C     0.2472     0.3265     0.28
A_2     C     0.0175     0.189     0.9011
A_2     C     0.8748     0.6632     0.7615
A_0     C     0.0014     0.5403     0.121
A_0     C     0.1881     0.9526     0.2547
A_1     C     0.0527     0.8118     0.7839
A_3     C     0.6757     0.4871     0.3958
A_0     C     0.2938     0.4909     0.671
A_3     C     0.8086     0.0529     0.4239
A_1     C     0.4625     0.355     0.315
A_1     C     0.7888     0.0432     0.5336
A_3     C     0.5115     0.2934     0.7715
A_3     C     0.1258     0.8766     0.2421
A_0     C     0.3632     0.1643     0.0382
A_1     C     0.1649     0.127     0.3094
A_2     C     0.3948     0.5498     0.1744
A_2     C     0.2623     0.3892     0.5416
A_0     C     0.1939     0.1319     0.1169
A_1     C     0.6532     0.2672     0.7123
A_1     C     0.2136     0.5167     0.6625
A_2     C     0.4245     0.753     0.4323
A_0     C     0.058     0.8641     0.0732
A_1     C     0.5803     0.9877     0.8843
A_3     C     0.7911     0.7972     0.2618
A_2     C     0.9361     0.5329     0.7863
A_3     C     0.6194     0.3095     0.6847
A_2     C     0.1682     0.9743     0.4229
A_3     C     0.9912     0.1996     0.021
A_0     C     0.1368     0.8108     0.3701
A_2     C     0.7698     0.2013     0.9279
A_1     C     0.5393     0.7175     0.7109
A_1     C     0.79     0.8513     0.2328
A_3     C     0.1752     0.6721     0.5617
A_3     C     0.3491     0.234     0.7597
A_2     C     0.6939     0.155     0.9949
A_3     C     0.7481     0.5193     0.1187
A_0     C     0.6088     0.3729     0.8326
A_3     C     0.6485     0.6611     0.7679
A_0     C     0.5953     0.1849     0.0084
A_2     C     0.0803     0.8661     0.1456
A_0     C     0.989     0.2177     0.8708
A_3     C     0.1365     0.491     0.198
A_1     C     0.9861     0.4346     0.2318
A_3     C     0.4706     0.7043     0.3027
A_0     C     0.3287     0.9469     0.5719
A_3     C     0.8248     0.4281     0.786
A_0     C     0.9726     0.7484     0.116
A_0     C     0.5461     0.7513     0.1606
A_2     C     0.969     0.0874     0.0628
A_1     C     0.6201     0.9108     0.3195
A_3     C     0.0669     0.5913     0.3713
A_3     C     0.6191     0.2722     0.7453
A_2     C     0.8998     0.2376     0.2221
A_1     C     0.5998     0.4627     0.755
A_2     C     0.6842     0.0441     0.592
A_0     C     0.6825     0.3423     0.0527
A_3     C     0.6694     0.3459     0.3041
A_2     C     0.3715     0.5534     0.4467
A_1     C     0.6403     0.3092     0.2649
A_1     C     0.5536     0.753     0.5337
A_3     C     0.3427     0.3158     0.5345
A_0     C     0.9308     0.05     0.4446
A_1     C     0.9233     0.7738     0.4571
A_2     C     0.091     0.1684     0.7177
A_3     C     0.2031     0.1281     0.6458
A_2     C     0.4828     0.7358     0.7943
A_3     C     0.9139     0.5488     0.6805
A_3     C     0.388     0.3468     0.7974
A_0     C     0.3578     0.1762     0.4645
A_1     C     0.4233     0.2244     0.5401
A_1     C     0.2702     0.4832     0.8301
A_1     C     0.5184     0.2339     0.4619
A_0     C     0.6882     0.8848     0.0381
A_2     C     0.3669     0.915     0.92
A_0     C     0.173     0.0437     0.0471
A_2     C     0.8615     0.0002     0.5644
A_0     C     0.3275     0.1339     0.1692
A_3     C     0.6631     0.1386     0.7301
A_1     C     0.49     0.2618     0.0211
A_3     C     0.4902     0.5704     0.5601
A_2     C     0.7056     0.4416     0.0535
A_0     C     0.8421     0.33     0.6887
A_2     C     0.971     0.3981     0.2777
A_2     C     0.9597     0.8182     0.8722
A_2     C     0.8118     0.4183     0.2983
A_3     C     0.3793     0.1667     0.8436
A_3     C     0.8803     0.3704     0.7283
A_0     C     0.8903     0.8602     0.3931
A_2     C     0.5492     0.5832     0.823
A_3     C     0.4982     0.9657     0.7128
A_3     C     0.6961     0.6209     0.7294
A_2     C     0.0056     0.0341     0.3115
A_0     C     0.5653     0.6378     0.5716
A_3     C     0.1059     0.04     0.5403
A_1     C     0.1124     0.6159     0.0494
A_0     C     0.7062     0.5071     0.3714
A_3     C     0.4673     0.6566     0.608
A_1     C     0.531     0.4711     0.8873
A_3     C     0.5014     0.3852     0.5524
A_2     C     0.2298     0.9385     0.8354
A_0     C     0.1065     0.8293     0.6979
A_3     C     0.8683     0.5392     0.3084
A_1     C     0.8444     0.9972     0.2954
A_2     C     0.551     0.2118     0.2659
A_3     C     0.3934     0.391     0.0325
A_3     C     0.6007     0.2249     0.0618
A_2     C     0.2279     0.612     0.6332
A_2     C     0.6227     0.0234     0.6994
A_0     C     0.6155     0.813     0.736
A_1     C     0.084     0.6356     0.2787
A_1     C     0.7586     0.2943     0.9004
A_2     C     0.7337     0.6456     0.208
A_1     C     0.6917     0.6196     0.3113
A_2     C     0.3917     0.4946     0.4796
A_0     C     0.062     0.4144     0.0849
A_1     C     0.7889     0.7828     0.0894
A_3     C     0.5294     0.9976     0.3955
A_2     C     0.9741     0.8917     0.2183
A_1     C     0.9301     0.1828     0.1798
A_3     C     0.9115     0.6949     0.3064
A_1     C     0.5474     0.2121     0.1441
A_1     C     0.7024     0.1736     0.8142
A_3     C     0.4624     0.2682     0.9852
A_2     C     0.9116     0.3063     0.4814
A_3     C     0.7944     0.7239     0.9832
A_0     C     0.9701     0.1821     0.963
A_1     C     0.6825     0.9904     0.3793
A_2     C     0.3985     0.3869     0.2889
A_3     C     0.7125     0.1891     0.2303
A_3     C     0.3918     0.4606     0.7314
A_2     C     0.244     0.6897     0.4865
A_2     C     0.0097     0.2515     0.5425
A_2     C     0.942     0.3252     0.9435
A_1     C     0.2375     0.9133     0.9743
A_3     C     0.1633     0.6274     0.9458
A_3     C     0.7677     0.102     0.5475
A_3     C     0.269     0.3485     0.2207
A_0     C     0.6424     0.4008     0.031
A_3     C     0.6652     0.1992     0.3589
A_3     C     0.502     0.687     0.2483
A_2     C     0.123     0.8417     0.6249
A_1     C     0.2912     0.5434     0.8261
A_3     C     0.5805     0.1373     0.2518
A_2     C     0.131     0.5881     0.0853
A_3     C     0.9048     0.1915     0.7807
A_1     C     0.3654     0.9227     0.5483
A_2     C     0.2714     0.1703     0.4997
A_0     C     0.5898     0.6361     0.0282
A_2     C     0.6305     0.0158     0.7972
A_2     C     0.6079     0.4152     0.7067
A_0     C     0.8966     0.8406     0.3871
A_1     C     0.299     0.0357     0.8209
A_0     C     0.674     0.9318     0.6142
A_0     C     0.0935     0.7211     0.345
A_1     C     0.5457     0.1402     0.4194
A_0     C     0.8608     0.5465     0.4735
A_3     C     0.6569     0.946     0.559
A_2     C     0.1536     0.8384     0.0753
A_2     C     0.7412     0.5387     0.5309
A_1     C     0.7273     0.6935     0.6737
A_1     C     0.309     0.5084     0.4915
A_2     C     0.48     0.3999     0.0695
A_1     C     0.1259     0.9206     0.6918
A_0     C     0.9128     0.2197     0.8464
A_0     C     0.9813     0.7681     0.776
A_3     C     0.2565     0.5254     0.5675
A_1     C     0.1875     0.0056     0.8935
A_1     C     0.8015     0.5584     0.6741
A_2     C     0.8839     0.6424     0.7681
A_2     C     0.1478     0.5738     0.2936
A_0     C     0.0671     0.0673     0.8274
A_2     C     0.0141     0.7902     0.5625
A_0     C     0.1885     0.1446     0.1827
A_2     C     0.9126     0.1243     0.2416
A_2     C     0.8401     0.4681     0.7819
A_0     C     0.3141     0.2869     0.5273
A_1     C     0.5765     0.0283     0.283
A_0     C     0.6921     0.7157     0.779
A_2     C     0.5145     0.0166     0.1816
A_1     C     0.0905     0.1652     0.0837
A_0     C     0.0335     0.0398     0.7099
A_2     C     0.2639     0.1806     0.3286
A_0     C     0.3047     0.1217     0.7936
A_1     C     0.0062     0.2079     0.3764
A_3     C     0.3217     0.8532     0.4079
A_2     C     0.2497     0.6613     0.2885
A_3     C     0.1681     0.3715     0.2232
A_2     C     0.1357     0.2958     0.3898
A_2     C     0.1281     0.8547     0.012
A_1     C     0.5886     0.9515     0.7169
A_1     C     0.32     0.9436     0.7629
A_0     C     0.3522     0.8983     0.798
A_3     C     0.5855     0.8446     0.6401
A_1     C     0.3314     0.7963     0.4861
A_3     C     0.3304     0.8667     0.799
A_3     C     0.1201     0.3862     0.1507
A_1     C     0.1345     0.0386     0.1373
A_1     C     0.6845     0.6363     0.8195
A_2     C     0.5514     0.7509     0.7773
A_0     C     0.2717     0.3017     0.9184
A_0     C     0.9893     0.9744     0.6206
A_3     C     0.7081     0.5889     0.5714
A_3     C     0.836     0.1723     0.1445
A_2     C     0.7712     0.0818     0.9899
A_3     C     0.6195     0.6269     0.0541
A_0     C     0.7016     0.1937     0.1355
A_2     C     0.0142     0.9111     0.2951
A_3     C     0.9719     0.941     0.7818
A_3     C     0.9161     0.2845     0.4667
A_1     C     0.2986     0.2048     0.5195
A_0     C     0.631     0.0543     0.9524
A_3     C     0.6845     0.4244     0.996
A_3     C     0.3836     0.0543     0.1951
A_1     C     0.2876     0.2881     0.5462
A_0     C     0.2008     0.8137     0.4561
A_2     C     0.3465     0.4701     0.8006
A_2     C     0.5377     0.7853     0.5595
A_3     C     0.2566     0.9963     0.6799
A_1     C     0.7221     0.9991     0.2996
A_2     C     0.6413     0.5489     0.5145
A_2     C     0.0736     0.1457     0.3369
A_1     C     0.236     0.5998     0.9085
A_2     C     0.1608     0.7114     0.9066
A_2     C     0.4534     0.6698     0.0905
A_3     C     0.391     0.0114     0.3553
A_1     C     0.71     0.3041     0.5588
A_2     C     0.6267     0.9416     0.7879
A_0     C     0.5562     0.5552     0.9096
A_0     C     0.0242     0.0081     0.7339
A_2     C     0.9     0.3558     0.4149
A_3     C     0.6042     0.9343     0.3475
A_3     C     0.0799     0.2844     0.8331
A_3     C     0.7367     0.8588     0.7754
A_0     C     0.587     0.2369     0.7077
A_1     C     0.6029     0.7434     0.3212
A_1     C     0.081     0.8661     0.9146
A_1     C     0.3651     0.2343     0.2888
A_1     C     0.5369     0.1769     0.0756
A_3     C     0.6591     0.8956     0.6685
A_2     C     0.7186     0.3627     0.6682
A_2     C     0.1957     0.0744     0.694
A_2     C     0.4423     0.6993     0.5952
A_1     C     0.5704     0.6457     0.888
A_0     C     0.2502     0.2222     0.3012
A_2     C     0.6279     0.6786     0.3414
A_0     C     0.6724     0.6642     0.1819
A_2     C     0.6446     0.7468     0.4939
A_1     C     0.2212     0.263     0.5837
A_3     C     0.9565     0.3536     0.9233
A_3     C     0.5892     0.4317     0.8976
A_2     C     0.7959     0.752     0.8737
A_2     C     0.9348     0.8255     0.5588
A_2     C     0.5413     0.2353     0.0041
A_2     C     0.4669     0.3558     0.9287
A_2     C     0.8589     0.4675     0.2363
A_0     C     0.5073     0.0213     0.0141
A_0     C     0.0331     0.7548     0.6019
A_3     C     0.2723     0.4056     0.021
A_1     C     0.4177     0.5146     0.9831
A_3     C     0.5018     0.3247     0.9901
A_0     C     0.0623     0.242     0.4772
A_0     C     0.1135     0.229     0.412
A_2     C     0.6882     0.9558     0.9445
A_2     C     0.2461     0.5842     0.9122
A_0     C     0.3994     0.2819     0.557
A_2     C     0.1168     0.8047     0.1322
A_2     C     0.4639     0.167     0.2138
A_1     C     0.0628     0.3348     0.6571
A_3     C     0.5274     0.9732     0.7776
A_2     C     0.6171     0.3335     0.9464
A_1     C     0.6666     0.0279     0.3773
A_2     C     0.2004     0.4311     0.895
A_0     C     0.4527     0.8852     0.7404
A_3     C     0.3211     0.2245     0.5045
A_3     C     0.5893     0.0588     0.1106
A_0     C     0.6427     0.1039     0.6657
A_3     C     0.9908     0.3732     0.5819
A_3     C     0.705     0.0669     0.9453
A_0     C     0.9806     0.2422     0.8134
A_1     C     0.7318     0.4726     0.3802
A_1     C     0.6988     0.6156     0.9806
A_0     C     0.4537     0.2732     0.7768
A_1     C     0.2312     0.6899     0.7762
A_3     C     0.2427     0.5921     0.7554
A_2     C     0.9254     0.6836     0.8393
A_2     C     0.7527     0.5813     0.3169
A_3     C     0.2127     0.2909     0.0877
A_0     C     0.1818     0.5409     0.9257
A_0     C     0.8699     0.2365     0.6178
A_1     C     0.3245     0.45     0.2349
A_0     C     0.1045     0.0439     0.8028
A_0     C     0.2831     0.9397     0.2778
A_3     C     0.1882     0.0797     0.9229
A_3     C     0.4369     0.6828     0.6878
A_2     C     0.3469     0.203     0.3271
A_2     C     0.2888     0.2259     0.6199
A_2     C     0.3838     0.0063     0.4649
A_3     C     0.8577     0.3531     0.2333
A_0     C     0.0362     0.1323     0.3605
A_1     C     0.6369     0.1659     0.9151
A_2     C     0.9617     0.534     0.9397
A_3     C     0.8418     0.5464     0.2737
A_1     C     0.2525     0.3471     0.4665
A_2     C     0.6174     0.2574     0.0129
A_1     C     0.4644     0.1209     0.4463
A_0     C     0.3754     0.1648     0.8043
A_0     C     0.5461     0.7343     0.7963
A_3     C     0.5823     0.867     0.7701
A_1     C     0.7226     0.9135     0.6265
A_3     C     0.1833     0.0483     0.4769
A_3     C     0.6107     0.7612     0.0412
A_3     C     0.6704     0.6546     0.9412
A_3     C     0.4352     0.4991     0.7452
A_0     C     0.5448     0.4461     0.8562
A_3     C     0.878     0.8347     0.8438
A_2     C     0.3302     0.8592     0.0213
A_0     C     0.5555     0.7409     0.0578
A_1     C     0.7572     0.8274     0.994
A_1     C     0.2657     0.9794     0.0441
A_0     C     0.5806     0.6168     0.9841
A_0     C     0.4301     0.3755     0.5139
A_0     C     0.0031     0.27     0.7033
A_2     C     0.0301     0.9255     0.311
A_2     C     0.7514     0.1575     0.4073
A_3     C     0.2589     0.9757     0.3957
A_2     C     0.2028     0.6813     0.4324
A_3     C     0.4104     0.0326     0.8559
A_0     C     0.3743     0.8111     0.3999
A_1     C     0.7698     0.7563     0.5199
A_2     C     0.6602     0.159     0.7433
A_0     C     0.9416     0.094     0.5788
A_2     C     0.3443     0.5005     0.3858
A_2     C     0.1757     0.4687     0.5773
A_1     C     0.6571     0.336     0.8976
A_2     C     0.6693     0.28     0.554
A_1     C     0.0466     0.1504     0.5447
A_2     C     0.958     0.5599     0.5888
A_0     C     0.6182     0.6808     0.2315
A_1     C     0.9839     0.0061     0.9184
A_1     C     0.6432     0.6351     0.2608
A_1     C     0.6956     0.4117     0.6176
A_0     C     0.4331     0.212     0.2626
A_3     C     0.6274     0.7149     0.6548
A_2     C     0.6745     0.9029     0.411
A_2     C     0.2351     0.3886     0.2901
A_2     C     0.3809     0.2703     0.2246
A_0     C     0.5096     0.5357     0.1005
A_0     C     0.2715     0.6136     0.4766
A_0     C     0.2437     0.8005     0.7
A_2     C     0.0608     0.2239     0.0291
A_0     C     0.2242     0.8258     0.0383
A_3     C     0.8312     0.8159     0.0035
A_3     C     0.915     0.5436     0.9462
A_3     C     0.1458     0.54     0.2079
A_2     C     0.6321     0.3441     0.259
A_0     C     0.0824     0.3968     0.6613
A_3     C     0.7526     0.1498     0.4199
A_3     C     0.6929     0.3273     0.9803
A_2     C     0.9957     0.805     0.342
A_0     C     0.9599     0.7673     0.7536
A_1     C     0.7127     0.0121     0.3008
A_1     C     0.7024     0.613     0.7839
A_2     C     0.8034     0.8977     0.0859
A_0     C     0.308     0.7729     0.8722
A_2     C     0.3903     0.9607     0.2775
A_0     C     0.5912     0.9792     0.4761
A_1     C     0.915     0.4982     0.3521
A_3     C     0.9452     0.9311     0.7561
A_3     C     0.0812     0.7681     0.9618
A_1     C     0.0453     0.5092     0.8976
A_3     C     0.9902     0.9233     0.3749
A_3     C     0.1996     0.2979     0.7152
A_3     C     0.7189     0.8056     0.3371
A_2     C     0.1584     0.8094     0.0388
A_2     C     0.5257     0.5759     0.3199
A_2     C     0.7775     0.988     0.5782
A_0     C     0.9865     0.1855     0.3982
A_2     C     0.3377     0.1033     0.8249
A_3     C     0.4416     0.6054     0.9748
A_3     C     0.8995     0.6191     0.7893
A_3     C     0.8929     0.0789     0.4479
A_3     C     0.0204     0.3262     0.3171
A_0     C     0.802     0.5589     0.1424
A_0     C     0.8239     0.7135     0.101
A_0     C     0.6052     0.0395     0.7255
A_0     C     0.7044     0.1678     0.695
A_3     C     0.0716     0.4125     0.0926
A_0     C     0.6339     0.1133     0.8492
A_2     C     0.2326     0.8141     0.4969
A_0     C     0.0671     0.7188     0.0605
A_3     C     0.629     0.6328     0.4755
A_2     C     0.2172     0.0168     0.4358
A_0     C     0.3885     0.6851     0.9126
A_3     C     0.6034     0.2888     0.6899
A_0     C     0.6649     0.5744     0.672
A_0     C     0.5959     0.2133     0.6007
A_0     C     0.8574     0.0895     0.3098
A_2     C     0.281     0.8373     0.7302
A_2     C     0.0371     0.078     0.7857
A_2     C     0.952     0.4187     0.8253
A_1     C     0.2462     0.0125     0.7633
A_0     C     0.7916     0.5206     0.7561
A_2     C     0.7085     0.714     0.0724
A_0     C     0.316     0.7084     0.5837
A_0     C     0.3275     0.7474     0.753
A_2     C     0.8502     0.8735     0.9197
A_2     C     0.0397     0.9984     0.3271
A_3     C     0.5681     0.6827     0.7812
A_3     C     0.4508     0.5305     0.2504
A_1     C     0.6801     0.5827     0.6397
A_0     C     0.9107     0.3299     0.8058
A_2     C     0.9474     0.4944     0.2306
A_0     C     0.2487     0.7912     0.3618
A_1     C     0.1859     0.5535     0.849
A_2     C     0.9363     0.4655     0.7237
A_0     C     0.0894     0.3181     0.8455
A_1     C     0.6818     0.3639     0.2987
A_2     C     0.2409     0.423     0.3811
A_0     C     0.2145     0.5103     0.5762
A_1     C     0.5716     0.1079     0.809
A_3     C     0.7094     0.5665     0.3378
A_1     C     0.5497     0.499     0.2191
A_0     C     0.1597     0.3436     0.3708
A_0     C     0.1178     0.1692     0.0548
A_3     C     0.3246     0.7684     0.5609
A_3     C     0.4263     0.5285     0.6094
A_1     C     0.4559     0.1888     0.8242
A_3     C     0.5313     0.6939     0.6639
A_0     C     0.1248     0.9817     0.5177
A_1     C     0.3273     0.0738     0.2274
A_1     C     0.9495     0.2428     0.6024
A_1     C     0.3672     0.4205     0.4565
A_2     C     0.9204     0.8405     0.677
A_2     C     0.335     0.1882     0.2234
A_0     C     0.4971     0.3965     0.8763
A_0     C     0.1522     0.1938     0.4933
A_0     C     0.0785     0.1796     0.311
A_2     C     0.9787     0.0585     0.8604
A_1     C     0.6536     0.8324     0.167
A_1     C     0.7123     0.5156     0.9737
A_2     C     0.4776     0.2337     0.9466
A_3     C     0.818     0.8384     0.3981
A_0     C     0.1133     0.5602     0.9565
A_2     C     0.9489     0.5779     0.374
A_1     C     0.0415     0.0277     0.3946
A_3     C     0.1234     0.5034     0.8177
A_3     C     0.4171     0.9274     0.4814
A_2     C     0.0582     0.3052     0.3233
A_1     C     0.2515     0.5228     0.5603
A_2     C     0.8088     0.432     0.6298
A_1     C     0.4977     0.1633     0.7711
A_0     C     0.0023     0.5698     0.7943
A_2     C     0.2365     0.8149     0.3356
A_1     C     0.6871     0.1478     0.9578
A_3     C     0.9332     0.8166     0.1725
A_1     C     0.6179     0.5338     0.0664
A_1     C     0.2729     0.703     0.9682
A_3     C     0.5552     0.8658     0.1841
A_0     C     0.557     0.7477     0.9689
A_2     C     0.2387     0.4788     0.9585
A_1     C     0.0106     0.5424     0.274
A_0     C     0.6855     0.8988     0.0063
A_3     C     0.391     0.4503     0.8913
A_2     C     0.8653     0.705     0.0111
A_1     C     0.8371     0.9134     0.3159
A_1     C     0.0227     0.6969     0.6337
A_2     C     0.1231     0.1784     0.1341
A_3     C     0.5705     0.0691     0.5427
A_2     C     0.1143     0.331     0.1132
A_1     C     0.4342     0.7612     0.174
A_2     C     0.8842     0.1581     0.7279
A_0     C     0.5838     0.973     0.5978
A_1     C     0.9731     0.4247     0.6902
A_0     C     0.264     0.6683     0.0469
A_1     C     0.3254     0.7963     0.9647
A_0     C     0.4248     0.4821     0.2886
A_0     C     0.178     0.9169     0.5647
A_0     C     0.3184     0.0487     0.0635
A_2     C     0.2905     0.6072     0.1667
A_1     C     0.7836     0.1769     0.4683
A_3     C     0.9952     0.7922     0.0319
A_3     C     0.7779     0.2962     0.9922
A_2     C     0.1166     0.2641     0.2219
A_0     C     0.8237     0.933     0.237
A_0     C     0.8499     0.0175     0.7296
A_3     C     0.5375     0.0667     0.1901
A_2     C     0.5797     0.1183     0.8003
A_2     C     0.5407     0.2973     0.4321
A_3     C     0.4112     0.5721     0.5601
A_2     C     0.9896     0.6718     0.2868
A_1     C     0.8464     0.2818     0.1025
A_0     C     0.9488     0.333     0.9936
A_3     C     0.9397     0.9759     0.6802
A_2     C     0.8493     0.8331     0.8349
A_2     C     0.7774     0.2647     0.56
A_2     C     0.6593     0.27     0.1991
A_0     C     0.7118     0.8329     0.715
A_0     C     0.2908     0.4008     0.5997
A_2     C     0.3251     0.7065     0.5243
A_2     C     0.2146     0.9452     0.9286
A_3     C     0.2858     0.9767     0.5428
A_2     C     0.7651     0.6514     0.1371
A_2     C     0.9375     0.5232     0.6584
A_0     C     0.2811     0.3829     0.2379
A_1     C     0.0352     0.4317     0.303
A_2     C     0.7968     0.5544     0.2017
A_2     C     0.4744     0.7722     0.7152
A_2     C     0.4595     0.8419     0.9596
A_3     C     0.1499     0.9908     0.687
A_3     C     0.9504     0.8913     0.5372
A_3     C     0.8982     0.6834     0.5354
A_2     C     0.8187     0.4047     0.6746
A_1     C     0.3632     0.8236     0.5059
A_1     C     0.0106     0.5829     0.9573
A_0     C     0.6787     0.9862     0.8088
A_3     C     0.6375     0.8368     0.8424
A_3     C     0.9812     0.0085     0.5741
A_0     C     0.373     0.828     0.6703
A_1     C     0.1247     0.4544     0.6672
A_3     C     0.4597     0.986     0.4111
A_2     C     0.9001     0.4161     0.3627
A_2     C     0.9661     0.1503     0.474
A_3     C     0.7156     0.1585     0.2369
A_3     C     0.6728     0.8326     0.3499
A_2     C     0.3123     0.962     0.1946
A_3     C     0.8991     0.9295     0.9348
A_3     C     0.351     0.2184     0.2297
A_1     C     0.5645     0.1803     0.4039
A_2     C     0.9193     0.2527     0.7218
A_3     C     0.6208     0.4707     0.981
A_0     C     0.4748     0.3648     0.6466
A_2     C     0.3945     0.7214     0.1298
A_0     C     0.2879     0.6068     0.5341
A_3     C     0.9814     0.0923     0.4182
A_0     C     0.989     0.4408     0.9106
A_2     C     0.1595     0.2491     0.4551
A_3     C     0.5374     0.927     0.4914
A_2     C     0.3361     0.5919     0.1709
A_3     C     0.9951     0.0117     0.1055
A_3     C     0.8203     0.8356     0.1584
A_2     C     0.9686     0.4979     0.2572
A_1     C     0.334     0.6538     0.4458
A_3     C     0.581     0.3693     0.7046
A_2     C     0.0188     0.5716     0.092
A_1     C     0.5742     0.6994     0.0649
A_1     C     0.0672     0.9822     0.9822
A_1     C     0.1844     0.1573     0.0787
A_2     C     0.5873     0.7162     0.3339
A_0     C     0.3067     0.6614     0.1762
A_1     C     0.0834     0.6336     0.8121
A_0     C     0.2457     0.4551     0.8637
A_3     C     0.808     0.2682     0.3058
A_1     C     0.7679     0.3551     0.954
A_0     C     0.5966     0.849     0.8675
A_2     C     0.3672     0.0392     0.1708
A_2     C     0.2446     0.1961     0.1978
A_1     C     0.6656     0.6969     0.3225
A_0     C     0.6804     0.518     0.7562
A_1     C     0.2248     0.829     0.1866
A_2     C     0.2749     0.0096     0.5815
A_2     C     0.4869     0.7698     0.2316
A_1     C     0.8062     0.109     0.3802
A_1     C     0.3417     0.2576     0.3107
A_2     C     0.5746     0.9433     0.4269
A_2     C     0.4019     0.6792     0.8261
A_0     C     0.9106     0.9072     0.9059
A_3     C     0.4102     0.2137     0.3102
A_1     C     0.9436     0.7258     0.8201
A_0     C     0.7201     0.8954     0.7269
A_0     C     0.8434     0.2388     0.3452
A_3     C     0.0883     0.6577     0.8536
A_3     C     0.5927     0.7568     0.1319
A_0     C     0.5884     0.6058     0.7292
A_1     C     0.3795     0.0099     0.5837
A_1     C     0.2493     0.6469     0.446
A_2     C     0.8224     0.5409     0.8353
A_0     C     0.9176     0.9443     0.6623
A_1     C     0.6498     0.2058     0.9737
A_1     C     0.2923     0.0243     0.685
A_3     C     0.0007     0.5162     0.3962
A_2     C     0.2753     0.8375     0.9505
A_2     C     0.8759     0.0456     0.9932
A_2     C     0.2246     0.0996     0.2618
A_1     C     0.7088     0.3451     0.0547
A_3     C     0.1334     0.3413     0.1397
A_2     C     0.0605     0.1541     0.8111
A_3     C     0.4178     0.6591     0.9591
A_0     C     0.9221     0.337     0.2699
A_0     C     0.5441     0.6972     0.3778
A_1     C     0.0282     0.3247     0.8995
A_1     C     0.9813     0.3923     0.6193
A_0     C     0.1413     0.4314     0.4427
A_2     C     0.0615     0.6586     0.8945
A_1     C     0.7609     0.952     0.7429
A_2     C     0.5685     0.7268     0.1278
A_2     C     0.8493     0.6543     0.2024
A_2     C     0.0199     0.8682     0.5518
A_2     C     0.2139     0.0675     0.8853
A_2     C     0.0642     0.556     0.2354
A_1     C     0.195     0.9549     0.7699
A_0     C     0.2045     0.2201     0.3355
A_1     C     0.0025     0.4334     0.0126
A_0     C     0.0351     0.1801     0.0981
A_1     C     0.2256     0.2693     0.4272
A_2     C     0.5841     0.8117     0.0692
A_3     C     0.8961     0.3573     0.0223
A_3     C     0.8493     0.4754     0.6754
A_1     C     0.7722     0.8915     0.9481
A_2     C     0.8947     0.0166     0.0995
A_1     C     0.906     0.0745     0.6418
A_2     C     0.4135     0.3618     0.6004
A_3     C     0.8907     0.9757     0.3917
A_1     C     0.8144     0.6208     0.8208
A_3     C     0.0762     0.3492     0.6225
A_1     C     0.0692     0.6105     0.1578
A_3     C     0.5587     0.8211     0.3534
A_2     C     0.947     0.8459     0.4312
A_1     C     0.6821     0.9428     0.0064
A_3     C     0.4768     0.1979     0.0912
A_2     C     0.9266     0.7355     0.6059
A_3     C     0.0665     0.8163     0.1131
A_0     C     0.9158     0.1064     0.6907
A_0     C     0.6029     0.3387     0.4719
A_2     C     0.9393     0.4977     0.9916
A_1     C     0.8864     0.5242     0.353
A_0     C     0.6684     0.2686     0.2963
A_1     C     0.4538     0.7628     0.5375
A_3     C     0.0778     0.9307     0.5532
A_1     C     0.3217     0.9249     0.2949
A_2     C     0.3846     0.5563     0.7308
A_0     C     0.0629     0.5671     0.0165
A_2     C     0.8151     0.2245     0.1866
A_2     C     0.3543     0.098     0.529
A_0     C     0.2181     0.206     0.2225
A_3     C     0.6285     0.238     0.8292
A_0     C     0.4335     0.0798     0.6833
A_2     C     0.9796     0.5764     0.8915
A_3     C     0.0484     0.6238     0.4566
A_2     C     0.9498     0.1763     0.6552
A_3     C     0.1224     0.6355     0.1977
A_0     C     0.6417     0.161     0.8213
A_3     C     0.1765     0.3083     0.3123
A_3     C     0.0527     0.2205     0.5233
A_1     C     0.4516     0.4025     0.5342
A_2     C     0.4203     0.8952     0.9312
A_3     C     0.0224     0.0395     0.847
A_2     C     0.0821     0.1345     0.0934
A_3     C     0.8342     0.8625     0.6948
A_1     C     0.4221     0.1319     0.1436
A_2     C     0.4386     0.9934     0.999
A_3     C     0.4181     0.0596     0.6221
A_1     C     0.5168     0.1253     0.3605
A_2     C     0.6633     0.0371     0.9314
A_0     C     0.8341     0.9927     0.6744
A_0     C     0.6849     0.7015     0.4862
A_1     C     0.348     0.7469     0.3678
A_2     C     0.8957     0.3033     0.8798
A_3     C     0.0909     0.2651     0.0983
A_2     C     0.5961     0.6349     0.6288
A_3     C     0.9876     0.989     0.8648
A_0     C     0.0799     0.1506     0.9045
A_2     C     0.1645     0.979     0.9002
A_0     C     0.696     0.6115     0.9613
A_0     C     0.9395     0.3431     0.3301
A_2     C     0.1874     0.0     0.4612
A_1     C     0.9356     0.6774     0.5946
A_0     C     0.4767     0.3282     0.6118
A_1     C     0.0906     0.0571     0.094
A_0     C     0.4386     0.8437     0.6823
A_1     C     0.2319     0.1552     0.1125
A_0     C     0.6993     0.0743     0.9681
A_0     C     0.5757     0.1129     0.7409
A_1     C     0.7341     0.4602     0.218
A_1     C     0.6597     0.3793     0.5756
A_2     C     0.2398     0.2116     0.4159
A_1     C     0.5353     0.4476     0.7984
A_0     C     0.9421     0.811     0.7453
A_3     C     0.8125     0.7895     0.7413
A_2     C     0.9289     0.3004     0.8622
A_2     C     0.2749     0.7846     0.6807
A_3     C     0.0478     0.7997     0.7722
A_1     C     0.2767     0.9482     0.5834
A_3     C     0.9621     0.7378     0.5377
A_2     C     0.2017     0.7665     0.3488
A_1     C     0.4579     0.5422     0.8234
A_2     C     0.8117     0.9573     0.7731
A_0     C     0.5424     0.8286     0.2977
A_3     C     0.9381     0.031     0.8936
A_0     C     0.5877     0.7929     0.0585
A_3     C     0.324     0.4923     0.9505
A_3     C     0.4268     0.5576     0.0717
A_3     C     0.3714     0.1557     0.4507
A_2     C     0.701     0.6895     0.4391
A_0     C     0.6749     0.6705     0.1202
A_1     C     0.905     0.718     0.539
A_0     C     0.7749     0.7177     0.4937
A_2     C     0.5253     0.7337     0.7674
A_3     C     0.1763     0.0839     0.8075
A_1     C     0.3551     0.0936     0.7038
A_0     C     0.6646     0.7813     0.1056
A_3     C     0.9991     0.5712     0.415
A_1     C     0.1018     0.9596     0.3695
A_3     C     0.2314     0.8403     0.3487
A_2     C     0.0921     0.2467     0.2747
A_2     C     0.263     0.9263     0.9056
A_3     C     0.7928     0.3854     0.08
A_2     C     0.9007     0.604     0.4492
A_2     C     0.3649     0.3956     0.4795
A_1     C     0.2253     0.8853     0.6444
A_0     C     0.5823     0.8738     0.7888
A_0     C     0.4884     0.6011     0.4246
A_0     C     0.7661     0.0605     0.141
A_0     C     0.1373     0.0465     0.8417
A_3     C     0.9955     0.9347     0.3211
A_2     C     0.2383     0.1382     0.4418
A_3     C     0.349     0.2659     0.5984
A_3     C     0.6986     0.6099     0.1538
A_2     C     0.2072     0.9006     0.2911
A_1     C     0.5854     0.642     0.8107
A_0     C     0.5662     0.6454     0.6334
A_0     C     0.7967     0.3678     0.0301
A_0     C     0.5836     0.4012     0.6769
A_0     C     0.26     0.7192     0.0758
A_1     C     0.083     0.1473     0.883
A_3     C     0.5196     0.3051     0.5133
A_1     C     0.5194     0.2724     0.5319
A_3     C     0.1702     0.0574     0.2133
A_2     C     0.5826     0.7996     0.0449
A_0     C     0.551     0.1709     0.1017
A_2     C     0.071     0.0482     0.9546
A_0     C     0.6693     0.9278     0.2611
A_3     C     0.4636     0.014     0.9749
A_1     C     0.5344     0.8114     0.8068
A_0     C     0.8132     0.5046     0.6054
A_3     C     0.7098     0.1266     0.1669
A_0     C     0.37     0.5419     0.6873
A_1     C     0.8496     0.1277     0.6451
A_2     C     0.8448     0.3603     0.2581
A_2     C     0.3421     0.2793     0.4967
A_3     C     0.7653     0.0467     0.5492
A_3     C     0.2996     0.9289     0.0777
A_2     C     0.4958     0.7243     0.3312
A_2     C     0.3727     0.4519     0.9935
A_2     C     0.8556     0.3911     0.5729
A_1     C     0.8123     0.2706     0.8591
A_1     C     0.2011     0.8424     0.6548
A_3     C     0.5772     0.3783     0.4825
A_1     C     0.8028     0.6845     0.0151
A_0     C     0.9719     0.7632     0.1114
A_0     C     0.307     0.8811     0.2398
A_3     C     0.4659     0.2843     0.7514
A_3     C     0.1522     0.4943     0.5875
A_2     C     0.5263     0.4608     0.8548
A_1     C     0.4589     0.2184     0.2632
A_0     C     0.6127     0.1679     0.419
A_2     C     0.6951     0.7901     0.6116
A_3     C     0.0845     0.9758     0.7163
A_3     C     0.3633     0.5044     0.9967
A_2     C     0.6898     0.8924     0.9227
A_3     C     0.3197     0.5053     0.0642
A_2     C     0.7925     0.2099     0.0745
A_2     C     0.7323     0.2638     0.8486
A_0     C     0.4278     0.4618     0.2486
A_0     C     0.1189     0.7655     0.3922
A_1     C     0.4068     0.3684     0.5291
A_1     C     0.7714     0.1813     0.5281
A_2     C     0.9807     0.9726     0.6679
A_2     C     0.9143     0.6171     0.4712
A_3     C     0.3568     0.7989     0.4307
A_0     C     0.1065     0.847     0.3089
A_2     C     0.2261     0.5559     0.4461
A_0     C     0.4469     0.4636     0.4629
A_1     C     0.6367     0.0262     0.5289
A_2     C     0.7784     0.9593     0.6064
A_3     C     0.6141     0.7037     0.8152
A_3     C     0.2821     0.5649     0.8991
A_3     C     0.2677     0.8753     0.7799
A_1     C     0.2964     0.5225     0.8499
A_1     C     0.7994     0.2434     0.3318
A_3     C     0.2138     0.796     0.5437
A_1     C     0.0357     0.4795     0.9171
A_0     C     0.1678     0.3634     0.6549
A_0     C     0.2328     0.3445     0.3088
A_3     C     0.2096     0.0904     0.4445
A_3     C     0.4063     0.6684     0.7557
A_0     C     0.6777     0.2624     0.0012
A_2     C     0.6538     0.5247     0.3698
A_0     C     0.8661     0.3839     0.1427
A_0     C     0.3662     0.9237     0.8842
A_0     C     0.4142     0.7475     0.2771
A_1     C     0.7485     0.2698     0.021
A_2     C     0.6629     0.1632     0.9153
A_2     C     0.3677     0.7378     0.1428
A_2     C     0.0587     0.8664     0.6819
A_2     C     0.3234     0.4385     0.7014
A_2     C     0.9822     0.0669     0.3633
A_3     C     0.1821     0.462     0.0752
A_1     C     0.6241     0.9586     0.6726
A_3     C     0.2449     0.2755     0.7765
A_3     C     0.34     0.8053     0.6127
A_2     C     0.2438     0.0667     0.5268
A_0     C     0.5569     0.3466     0.3006
A_0     C     0.5263     0.4385     0.9532
A_0     C     0.8924     0.5296     0.4289
A_2     C     0.5804     0.1449     0.4292
A_3     C     0.363     0.249     0.2225
A_3     C     0.5806     0.9654     0.8789
A_2     C     0.5989     0.5561     0.5431
A_0     C     0.6118     0.3493     0.3366
A_1     C     0.3958     0.4262     0.8526
A_0     C     0.8315     0.001     0.7598
A_3     C     0.4488     0.4677     0.5088
A_2     C     0.5468     0.9503     0.7116
A_3     C     0.3752     0.8062     0.9327
A_3     C     0.2694     0.65     0.658
A_0     C     0.751     0.3206     0.5877
A_2     C     0.9312     0.5374     0.7751
A_3     C     0.2727     0.4352     0.5855
A_3     C     0.9081     0.3479     0.2067
A_3     C     0.0303     0.2617     0.0129
A_1     C     0.036     0.5472     0.5668
A_2     C     0.8176     0.2217     0.3504
A_0     C     0.8663     0.787     0.3772
A_3     C     0.527     0.9157     0.8497
A_3     C     0.4712     0.2215     0.2645
A_1     C     0.1213     0.6172     0.5082
A_0     C     0.1116     0.7759     0.6175
A_0     C     0.8481     0.6781     0.6879
A_3     C     0.5774     0.6248     0.2876
A_0     C     0.9014     0.6898     0.8466
A_2     C     0.2313     0.8135     0.2524
A_2     C     0.1708     0.3458     0.2051
A_2     C     0.0054     0.7422     0.0382
A_2     C     0.3372     0.2007     0.3317
A_2     C     0.3565     0.8311     0.4365
A_0     C     0.7676     0.4722     0.7593
A_0     C     0.9315     0.4553     0.4589
A_3     C     0.3775     0.2285     0.0888
A_2     C     0.6888     0.8934     0.1324
A_1     C     0.1408     0.4599     0.0464
A_1     C     0.0642     0.6299     0.0074
A_2     C     0.0743     0.3904     0.7664
A_3     C     0.9162     0.6864     0.0661
A_3     C     0.1993     0.2172     0.6065
A_3     C     0.4777     0.957     0.2907
A_0     C     0.659     0.5292     0.4426
A_1     C     0.3049     0.7749     0.2634
A_0     C     0.8677     0.7136     0.9468
A_0     C     0.9931     0.2915     0.4172
A_3     C     0.2492     0.6506     0.6383
A_3     C     0.1503     0.8994     0.4734
A_3     C     0.5477     0.6442     0.6952
A_3     C     0.6455     0.2703     0.5258
A_2     C     0.946     0.2652     0.2738
A_1     C     0.9679     0.3536     0.2792
A_2     C     0.3052     0.898     0.6455
A_3     C     0.1263     0.0492     0.1253
A_2     C     0.1659     0.5243     0.3904
A_3     C     0.473     0.3039     0.3156
A_0     C     0.4829     0.2884     0.0827
A_0     C     0.6717     0.8815     0.8471
A_1     C     0.6833     0.9527     0.2328
A_0     C     0.3661     0.8404     0.869
A_0     C     0.1613     0.0152     0.7159
A_3     C     0.4558     0.1659     0.3196
A_3     C     0.9842     0.9678     0.8235
A_3     C     0.2445     0.7658     0.2601
A_2     C     0.1973     0.8844     0.2157
A_0     C     0.9563     0.4609     0.1359
A_0     C     0.7692     0.9521     0.9786
A_3     C     0.5197     0.1938     0.9969
A_1     C     0.7817     0.2057     0.9957
A_0     C     0.0526     0.7025     0.4443
A_0     C     0.4707     0.3293     0.5961
A_1     C     0.319     0.9824     0.1107
A_2     C     0.3388     0.435     0.2449
A_2     C     0.5121     0.5871     0.8004
A_2     C     0.3527     0.2017     0.315
A_0     C     0.4368     0.4388     0.4918
A_2     C     0.83     0.4075     0.6731
A_2     C     0.3385     0.2571     0.2418
A_3     C     0.7242     0.3681     0.1378
A_1     C     0.7069     0.6335     0.6367
A_0     C     0.5459     0.0916     0.8815
A_1     C     0.4811     0.6264     0.9468
A_1     C     0.7793     0.0464     0.0569
A_1     C     0.0217     0.2577     0.1802
A_0     C     0.012     0.8266     0.2826
A_1     C     0.5895     0.6975     0.5234
A_1     C     0.3451     0.045     0.8864
A_0     C     0.5135     0.0288     0.9669
A_0     C     0.2572     0.8818     0.7434
A_1     C     0.592     0.9665     0.6513
A_1     C     0.0556     0.3843     0.2501
A_2     C     0.6945     0.8957     0.947
A_0     C     0.7198     0.1986     0.3455
A_2     C     0.6973     0.3372     0.7115
A_2     C     0.2841     0.6351     0.337
A_0     C     0.6206     0.8547     0.2072
A_0     C     0.2226     0.7479     0.3717
A_3     C     0.0755     0.3394     0.2647
A_2     C     0.6945     0.5968     0.7801
A_2     C     0.626     0.1219     0.315
A_2     C     0.8444     0.1137     0.013
A_2     C     0.0268     0.975     0.7777
A_1     C     0.1336     0.5831     0.1452
A_0     C     0.1353     0.646     0.7941
A_0     C     0.9515     0.6845     0.0331
A_2     C     0.7389     0.086     0.9298
A_2     C     0.3806     0.0114     0.0807
A_0     C     0.1585     0.0567     0.9595
A_1     C     0.9165     0.3425     0.1741
A_3     C     0.3985     0.1555     0.8114
A_1     C     0.8642     0.175     0.6407
A_0     C     0.1562     0.7733     0.0656
A_1     C     0.9606     0.1756     0.6937
A_0     C     0.2186     0.4971     0.8166
A_0     C     0.9555     0.8206     0.218
A_3     C     0.8234     0.1415     0.1849
A_0     C     0.6812     0.5046     0.16
A_1     C     0.0976     0.4466     0.6744
A_3     C     0.6467     0.8441     0.5206
A_2     C     0.0465     0.4078     0.8438
A_1     C     0.9148     0.7274     0.6316
A_0     C     0.2211     0.1295     0.9711
A_0     C     0.1056     0.246     0.8443
A_2     C     0.6489     0.0533     0.4988
A_0     C     0.516     0.3142     0.7894
A_0     C     0.145     0.4009     0.3962
A_1     C     0.9932     0.4926     0.3356
A_2     C     0.1141     0.1667     0.4147
A_2     C     0.9762     0.949     0.7849
A_2     C     0.1997     0.395     0.5501
A_1     C     0.1468     0.8508     0.0135
A_1     C     0.6638     0.7177     0.7942
A_1     C     0.3646     0.4349     0.7002
A_1     C     0.7965     0.2047     0.6283
A_3     C     0.7662     0.0071     0.0173
A_2     C     0.1119     0.3026     0.412
A_1     C     0.2659     0.8281     0.5924
A_1     C     0.4145     0.7766     0.2473
A_3     C     0.119     0.2539     0.0732
A_3     C     0.4408     0.149     0.5599
A_0     C     0.9066     0.0366     0.1131
A_2     C     0.6746     0.5349     0.0857
A_0     C     0.6018     0.3769     0.1249
A_1     C     0.5372     0.5706     0.6558
A_3     C     0.7484     0.4268     0.3435
A_3     C     0.9536     0.8588     0.8476
A_3     C     0.6264     0.9985     0.9187
A_3     C     0.11     0.3788     0.3594
A_0     C     0.4206     0.2794     0.3789
A_1     C     0.41     0.052     0.5066
A_1     C     0.7939     0.6488     0.1969
A_0     C     0.7982     0.3853     0.2566
A_0     C     0.1537     0.1748     0.6366
A_0     C     0.722     0.3565     0.3358
A_3     C     0.1739     0.9142     0.8415
A_2     C     0.006     0.4478     0.4955
A_3     C     0.9934     0.9455     0.8348
A_3     C     0.2627     0.4457     0.5105
A_1     C     0.8817     0.7046     0.4663
A_1     C     0.8228     0.2263     0.1176
A_1     C     0.2996     0.3155     0.532
A_1     C     0.327     0.077     0.9055
A_2     C     0.9831     0.2458     0.9115
A_2     C     0.8949     0.7999     0.7935
A_1     C     0.4777     0.0458     0.2022
A_3     C     0.794     0.4854     0.1012
A_0     C     0.162     0.5457     0.5401
A_2     C     0.6523     0.4335     0.4322
A_1     C     0.607     0.5471     0.7906
A_1     C     0.9389     0.8258     0.3318
A_3     C     0.4663     0.6849     0.2922
A_0     C     0.3776     0.8106     0.1386
A_0     C     0.4809     0.6997     0.6946
A_0     C     0.5817     0.7185     0.2322
A_3     C     0.0583     0.3005     0.6094
A_2     C     0.5337     0.7242     0.2304
A_0     C     0.4624     0.3509     0.3027
A_0     C     0.9799     0.4973     0.6838
A_1     C     0.4347     0.1634     0.6989
A_3     C     0.9159     0.959     0.4758
A_3     C     0.8175     0.0913     0.9719
A_0     C     0.7655     0.1976     0.5965
A_2     C     0.0336     0.9586     0.9295
A_1     C     0.3873     0.3666     0.8284
A_1     C     0.3743     0.5369     0.2816
A_3     C     0.4073     0.8014     0.9762
A_3     C     0.7355     0.2705     0.966
A_2     C     0.0421     0.1176     0.9776
A_3     C     0.8345     0.3853     0.8007
A_3     C     0.3124     0.6069     0.9645
A_3     C     0.7814     0.0332     0.4216
A_2     C     0.2601     0.1004     0.8018
A_3     C     0.2418     0.6666     0.8508
A_2     C     0.1776     0.243     0.3444
A_3     C     0.9379     0.3061     0.9262
A_1     C     0.8703     0.2123     0.6504
A_0     C     0.0209     0.4649     0.1615
A_3     C     0.9817     0.0716     0.2452
A_2     C     0.3361     0.4735     0.6675
A_3     C     0.0832     0.7562     0.5724
A_2     C     0.5767     0.2405     0.0569
A_1     C     0.6535     0.0812     0.4991
A_0     C     0.0004     0.9878     0.4481
A_2     C     0.1602     0.1741     0.4643
A_1     C     0.604     0.2591     0.6216
A_0     C     0.6902     0.4358     0.0234
A_0     C     0.5066     0.1749     0.9273
A_0     C     0.7471     0.1544     0.3496
A_2     C     0.66     0.8516     0.8216
A_0     C     0.2812     0.9734     0.678
A_3     C     0.6762     0.7924     0.6623
A_2     C     0.2749     0.9889     0.8125
A_0     C     0.2882     0.9134     0.1885
A_1     C     0.7842     0.5835     0.2049
A_2     C     0.9756     0.9943     0.0993
A_3     C     0.8882     0.2241     0.4913
A_1     C     0.1488     0.5384     0.5281
A_2     C     0.3366     0.8301     0.8364
A_3     C     0.0805     0.9612     0.0115
A_2     C     0.5226     0.0607     0.5549
A_0     C     0.2678     0.5806     0.2675
A_2     C     0.8099     0.522     0.6894
A_2     C     0.2733     0.1088     0.5951
A_1     C     0.0347     0.4936     0.6308
A_3     C     0.7221     0.0616     0.0085
A_3     C     0.3035     0.7376     0.3928
A_0     C     0.1275     0.5522     0.2918
A_0     C     0.8506     0.7579     0.6729
A_2     C     0.1512     0.4461     0.0882
A_2     C     0.4214     0.6006     0.2238
A_1     C     0.922     0.3079     0.06
A_0     C     0.7826     0.2826     0.2131
A_1     C     0.2482     0.0989     0.509
A_3     C     0.6985     0.3654     0.8641
A_0     C     0.6473     0.4139     0.2301
A_0     C     0.0456     0.0114     0.4305
A_1     C     0.713     0.1937     0.4064
A_3     C     0.5335     0.6968     0.5587
A_2     C     0.5651     0.3811     0.3264
A_2     C     0.9013     0.6886     0.7419
A_1     C     0.3697     0.5614     0.8224
A_0     C     0.2859     0.3607     0.5328
A_2     C     0.6178     0.6602     0.6868
A_0     C     0.9492     0.1358     0.2648
A_3     C     0.4024     0.5234     0.328
A_0     C     0.8281     0.0486     0.8045
A_2     C     0.3698     0.0539     0.1889
A_0     C     0.9891     0.7807     0.7276
A_0     C     0.7286     0.1987     0.2937
A_0     C     0.6078     0.0901     0.3113
A_3     C     0.2754     0.5345     0.165
A_1     C     0.7557     0.808     0.2276
A_2     C     0.9158     0.4786     0.0312
A_0     C     0.0066     0.509     0.5497
A_3     C     0.6454     0.9327     0.5378
A_3     C     0.1674     0.7229     0.6121
A_0     C     0.4558     0.5201     0.0904
A_3     C     0.6207     0.9439     0.4441
A_0     C     0.9106     0.339     0.8967
A_0     C     0.5419     0.6037     0.6743
A_1     C     0.0396     0.8314     0.1089
A_0     C     0.7817     0.0374     0.4886
A_2     C     0.0464     0.702     0.5914
A_0     C     0.8612     0.857     0.8969
A_3     C     0.2958     0.4715     0.6536
A_3     C     0.6734     0.6039     0.4203
A_1     C     0.5785     0.3863     0.9384
A_0     C     0.0192     0.7703     0.6442
A_2     C     0.3013     0.0906     0.1298
A_1     C     0.7134     0.4407     0.6025
A_2     C     0.9047     0.7697     0.4876
A_0     C     0.9338     0.1025     0.6034
A_2     C     0.0288     0.2625     0.2067
A_3     C     0.3369     0.965     0.1377
A_1     C     0.1599     0.9842     0.1594
A_2     C     0.0986     0.0828     0.1043
A_1     C     0.6822     0.7472     0.6819
A_2     C     0.2733     0.1534     0.7371
A_1     C     0.5678     0.3895     0.2833
A_1     C     0.6549     0.5183     0.2635
A_1     C     0.365     0.5044     0.7954
A_0     C     0.9968     0.4308     0.6551
A_1     C     0.1743     0.7871     0.4064
A_3     C     0.2182     0.8031     0.8084
A_1     C     0.1228     0.7939     0.2486
A_1     C     0.8466     0.4148     0.2819
A_3     C     0.417     0.9405     0.906
A_3     C     0.9994     0.0445     0.9544
A_0     C     0.8104     0.9919     0.0178
A_0     C     0.7025     0.906     0.5518
A_2     C     0.4588     0.1323     0.8623
A_3     C     0.5994     0.2944     0.9811
A_2     C     0.758     0.2151     0.8622
A_2     C     0.7789     0.145     0.3147
A_0     C     0.1094     0.3724     0.1368
A_2     C     0.081     0.665     0.828
A_3     C     0.6268     0.1943     0.2725
A_0     C     0.6521     0.7554     0.6661
A_3     C     0.7404     0.405     0.6358
A_0     C     0.2518     0.4881     0.3531
A_1     C     0.409     0.6433     0.9669
A_2     C     0.4605     0.5711     0.8794
A_2     C     0.1968     0.147     0.2672
A_1     C     0.1694     0.8796     0.3996
A_2     C     0.2254     0.1883     0.5724
A_3     C     0.5593     0.9762     0.3961
A_0     C     0.753     0.1248     0.1458
A_2     C     0.4577     0.6452     0.0329
A_3     C     0.0793     0.0654     0.1623
A_3     C     0.2042     0.6471     0.632
A_0     C     0.0608     0.0806     0.1137
A_2     C     0.3732     0.947     0.9331
A_0     C     0.7124     0.6477     0.9346
A_0     C     0.1059     0.7962     0.9661
A_1     C     0.1825     0.1792     0.913
A_1     C     0.7293     0.1711     0.1821
A_0     C     0.9321     0.3445     0.0228
A_0     C     0.2004     0.6821     0.4318
A_3     C     0.7273     0.1201     0.6668
A_1     C     0.2392     0.8784     0.1213
A_3     C     0.8367     0.0491     0.118
A_0     C     0.8638     0.94     0.6262
A_2     C     0.292     0.3596     0.2451
A_1     C     0.0571     0.5438     0.9847
A_0     C     0.4414     0.3085     0.8819
A_3     C     0.6848     0.5329     0.158
A_3     C     0.5134     0.8413     0.4063
A_1     C     0.6455     0.8469     0.089
A_0     C     0.5791     0.725     0.3322
A_1     C     0.1469     0.8542     0.0959
A_3     C     0.9557     0.9724     0.358
A_3     C     0.7211     0.8541     0.4691
A_2     C     0.3743     0.9434     0.6476
A_1     C     0.9157     0.523     0.7373
A_0     C     0.9255     0.3953     0.7309
A_1     C     0.5059     0.6765     0.6968
A_2     C     0.6925     0.0778     0.8716
A_0     C     0.4771     0.758     0.7249
A_1     C     0.3384     0.2358     0.7036
A_3     C     0.3695     0.3363     0.0502
A_3     C     0.5451     0.2707     0.1774
A_2     C     0.7848     0.4147     0.0838
A_0     C     0.1305     0.9575     0.2992
A_3     C     0.106     0.1458     0.1463
A_1     C     0.8349     0.0552     0.6554
A_0     C     0.2282     0.7508     0.0796
A_0     C     0.5463     0.0119     0.5231
A_0     C     0.4441     0.6194     0.9606
A_1     C     0.8033     0.0816     0.0179
A_1     C     0.8745     0.6746     0.8738
A_3     C     0.7602     0.9556     0.7789
A_0     C     0.0825     0.1444     0.03
A_2     C     0.1057     0.3165     0.784
A_1     C     0.8277     0.5122     0.351
A_0     C     0.3233     0.7986     0.9576
A_0     C     0.8834     0.1346     0.2519
A_3     C     0.5521     0.8273     0.3698
A_3     C     0.1323     0.5422     0.9636
A_0     C     0.2686     0.2279     0.9937
A_1     C     0.2917     0.1859     0.1106
A_0     C     0.7437     0.0632     0.9913
A_3     C     0.0112     0.5261     0.6479
A_3     C     0.3024     0.6511     0.252
A_3     C     0.8622     0.8494     0.5426
A_2     C     0.8806     0.8578     0.6598
A_1     C     0.3191     0.8271     0.4415
A_0     C     0.1732     0.6731     0.5496
A_1     C     0.9278     0.7989     0.2976
A_3     C     0.3912     0.558     0.4645
A_2     C     0.7023     0.8785     0.9706
A_2     C     0.2508     0.0943     0.5129
A_2     C     0.5004     0.3157     0.9095
A_1     C     0.9749     0.3589     0.6323
A_3     C     0.4751     0.95     0.934
A_2     C     0.7701     0.535     0.2871
A_1     C     0.2128     0.6998     0.3854
A_1     C     0.3307     0.6558     0.0499
A_3     C     0.5484     0.007     0.7661
A_0     C     0.0674     0.003     0.6502
A_1     C     0.3848     0.982     0.6813
A_3     C     0.7498     0.0692     0.6903
A_3     C     0.368     0.759     0.2352
A_0     C     0.3501     0.4708     0.4149
A_3     C     0.3382     0.7475     0.3032
A_0     C     0.4377     0.0194     0.1814
A_3     C     0.4932     0.9603     0.7758
A_3     C     0.2217     0.0848     0.4818
A_2     C     0.9996     0.4523     0.2196
A_1     C     0.3289     0.6083     0.1679
A_0     C     0.0683     0.1057     0.2808
A_0     C     0.2392     0.2787     0.4259
A_1     C     0.7783     0.879     0.8316
A_1     C     0.1425     0.0597     0.7285
A_1     C     0.047     0.3047     0.2581
A_3     C     0.4056     0.8629     0.3752
A_3     C     0.0984     0.7827     0.1324
A_2     C     0.2458     0.6549     0.6488
A_1     C     0.9812     0.2132     0.5083
A_2     C     0.7372     0.3438     0.883
A_2     C     0.1472     0.6088     0.5591
A_0     C     0.418     0.5879     0.5486
A_3     C     0.1943     0.0942     0.9785
A_2     C     0.0816     0.0207     0.9407
A_1     C     0.2328     0.4038     0.2255
A_3     C     0.3334     0.0849     0.1762
A_2     C     0.876     0.539     0.8819
A_0     C     0.4891     0.0168     0.7785
A_1     C     0.8197     0.8419     0.3104
A_2     C     0.4617     0.2973     0.5791
A_3     C     0.995     0.5915     0.6913
