MAT-43

loop_
_symmetry_equiv_pos_as_xyz
  x,y,z
_cell_length_a          19.7159
_cell_length_b          24.8337
_cell_length_c          51.0216
_cell_angle_alpha       90.0000
_cell_angle_beta        90.0000
_cell_angle_gamma       90.0000
loop_
_atom_site_label
_atom_site_type_symbol
_atom_site_fract_x
_atom_site_fract_y
_atom_site_fract_z
A_2     C     0.293     0.2392     0.7867
A_3     C     0.5341     0.6078     0.327
A_0     C     0.1496     0.1914     0.3433
A_0     C     0.6157     0.5381     0.4511
A_3     C     0.858     0.5311     0.5077
A_0     C     0.3192     0.4144     0.011
A_0     C     0.3727     0.7278     0.1717
A_0     C     0.3656     0.4421     0.2103
A_2     C     0.1874     0.3206     0.2392
A_0     C     0.9278     0.439     0.7826
A_0     C     0.4504     0.0645     0.7037
A_1     C     0.6526     0.5864     0.242
A_3     C     0.9054     0.9432     0.191
A_3     C     0.3131     0.0839     0.8816
A_3     C     0.5776     0.8927     0.5651
A_3     C     0.9334     0.388     0.2144
A_0     C     0.2603     0.2915     0.1277
A_3     C     0.0612     0.7599     0.2698
A_2     C     0.1577     0.3141     0.5591
A_1     C     0.6384     0.6008     0.9047
A_2     C     0.361     0.8442     0.6293
A_0     C     0.6668     0.3312     0.0474
A_2     C     0.6024     0.1363     0.6671
A_1     C     0.8846     0.4194     0.9082
A_3     C     0.3674     0.2166     0.0148
A_1     C     0.3374     0.4336     0.5298
A_0     C     0.4609     0.6954     0.0507
A_3     C     0.7996     0.0189     0.8435
A_2     C     0.8543     0.4881     0.9647
A_2     C     0.8849     0.1833     0.6469
A_0     C     0.2957     0.3278     0.8613
A_1     C     0.993     0.0751     0.9581
A_3     C     0.733     0.3442     0.5574
A_2     C     0.0506     0.8835     0.0151
A_1     C     0.6039     0.5173     0.6807
A_3     C     0.6122     0.3536     0.7603
A_3     C     0.4838     0.4763     0.8483
A_2     C     0.7734     0.4861     0.8016
A_2     C     0.1082     0.9731     0.614
A_3     C     0.6378     0.5415     0.4988
A_2     C     0.2106     0.3657     0.412
A_0     C     0.6971     0.1673     0.8144
A_3     C     0.9117     0.915     0.1727
A_0     C     0.5863     0.6175     0.2633
A_1     C     0.3182     0.1635     0.7928
A_1     C     0.4113     0.9307     0.6935
A_2     C     0.0466     0.1627     0.9554
A_3     C     0.9328     0.3707     0.0959
A_1     C     0.1746     0.1771     0.6971
A_2     C     0.9163     0.66     0.8834
A_1     C     0.9818     0.2085     0.4386
A_1     C     0.3373     0.4525     0.7622
A_2     C     0.8044     0.2018     0.0402
A_3     C     0.0044     0.3538     0.6071
A_2     C     0.1712     0.2714     0.6568
A_0     C     0.007     0.7974     0.231
A_1     C     0.9799     0.9194     0.1701
A_3     C     0.0155     0.7755     0.2901
A_3     C     0.4895     0.9372     0.8022
A_1     C     0.887     0.9161     0.3439
A_2     C     0.6662     0.8218     0.9131
A_3     C     0.9456     0.7185     0.6611
A_3     C     0.2084     0.3142     0.5547
A_3     C     0.5992     0.0507     0.3146
A_1     C     0.3114     0.4392     0.9133
A_3     C     0.8232     0.3688     0.1302
A_0     C     0.6286     0.8694     0.2805
A_3     C     0.0976     0.993     0.1034
A_1     C     0.6917     0.9284     0.5645
A_1     C     0.1369     0.603     0.3003
A_3     C     0.931     0.0877     0.7212
A_1     C     0.0746     0.7212     0.9231
A_0     C     0.3778     0.1051     0.8247
A_0     C     0.1828     0.448     0.0493
A_3     C     0.2045     0.0584     0.0529
A_1     C     0.7265     0.3391     0.4075
A_2     C     0.4199     0.7158     0.3501
A_0     C     0.1051     0.8736     0.1453
A_2     C     0.8432     0.83     0.3088
A_1     C     0.8039     0.0722     0.6685
A_3     C     0.4147     0.1313     0.5847
A_1     C     0.8068     0.6225     0.9212
A_1     C     0.9014     0.5405     0.2527
A_0     C     0.9889     0.2242     0.4754
A_0     C     0.4125     0.877     0.6551
A_1     C     0.0136     0.0173     0.785
A_3     C     0.1373     0.0454     0.894
A_0     C     0.7096     0.4001     0.9798
A_2     C     0.7987     0.1381     0.301
A_0     C     0.2923     0.0652     0.7746
A_1     C     0.1666     0.2813     0.8719
A_3     C     0.9286     0.7637     0.6031
A_3     C     0.2778     0.4225     0.3607
A_0     C     0.8643     0.0007     0.9897
A_3     C     0.8418     0.168     0.0239
A_2     C     0.7265     0.8718     0.5807
A_1     C     0.88     0.4031     0.1327
A_3     C     0.1078     0.0279     0.7611
A_3     C     0.4125     0.0328     0.8127
A_0     C     0.75     0.6982     0.2769
A_3     C     0.1794     0.7088     0.0007
A_0     C     0.9165     0.1009     0.4468
A_2     C     0.6826     0.1385     0.0742
A_1     C     0.0417     0.1244     0.6931
A_3     C     0.5044     0.1745     0.793
A_0     C     0.9175     0.7122     0.6514
A_3     C     0.8824     0.3387     0.6408
A_2     C     0.2902     0.2518     0.9505
A_3     C     0.6757     0.3142     0.9417
A_0     C     0.8987     0.1812     0.068
A_3     C     0.7149     0.6136     0.7394
A_1     C     0.5856     0.981     0.8144
A_2     C     0.8488     0.0081     0.2678
A_3     C     0.4965     0.2846     0.5993
A_3     C     0.5167     0.0118     0.8654
A_1     C     0.7836     0.5084     0.918
A_2     C     0.9405     0.0695     0.3183
A_2     C     0.2654     0.1463     0.6403
A_1     C     0.1921     0.2078     0.4822
A_0     C     0.6727     0.5295     0.2554
A_3     C     0.1501     0.9926     0.7492
A_2     C     0.0922     0.144     0.9321
A_3     C     0.5322     0.9991     0.5017
A_1     C     0.974     0.6593     0.2678
A_0     C     0.2161     0.306     0.3437
A_0     C     0.8578     0.5033     0.6151
A_0     C     0.8369     0.7237     0.5497
A_2     C     0.3612     0.3587     0.0243
A_0     C     0.8789     0.8532     0.737
A_3     C     0.0573     0.6918     0.5052
A_0     C     0.2271     0.9935     0.9145
A_3     C     0.7556     0.4786     0.534
A_0     C     0.7677     0.3699     0.112
A_2     C     0.275     0.7969     0.4598
A_2     C     0.4436     0.7314     0.9344
A_3     C     0.2276     0.6251     0.5557
A_1     C     0.5644     0.646     0.7519
A_3     C     0.9132     0.5     0.0545
A_3     C     0.8811     0.0202     0.8294
A_3     C     0.9512     0.0518     0.5377
A_3     C     0.9107     0.5048     0.2288
A_0     C     0.2787     0.4183     0.3751
A_2     C     0.4304     0.8289     0.7345
A_1     C     0.2729     0.7445     0.5276
A_3     C     0.8616     0.6234     0.7942
A_0     C     0.9411     0.897     0.1149
A_2     C     0.7835     0.3021     0.9144
A_1     C     0.533     0.9357     0.2247
A_0     C     0.1211     0.8998     0.3383
A_0     C     0.1877     0.7874     0.2594
A_3     C     0.7912     0.5355     0.9081
A_2     C     0.7056     0.7895     0.2955
A_1     C     0.5247     0.9667     0.4196
A_0     C     0.7398     0.0743     0.5236
A_2     C     0.4417     0.6807     0.5092
A_0     C     0.2472     0.9697     0.4782
A_1     C     0.0161     0.9105     0.4683
A_1     C     0.985     0.5177     0.1319
A_2     C     0.2433     0.6064     0.0071
A_1     C     0.2983     0.4378     0.4035
A_0     C     0.6251     0.0322     0.2345
A_3     C     0.6132     0.049     0.7395
A_1     C     0.3836     0.4104     0.3575
A_2     C     0.8875     0.2483     0.5165
A_3     C     0.4016     0.9415     0.168
A_3     C     0.8843     0.1872     0.4433
A_0     C     0.4043     0.7261     0.5431
A_2     C     0.5136     0.1242     0.322
A_2     C     0.7136     0.8403     0.5598
A_2     C     0.8908     0.1701     0.1761
A_1     C     0.1724     0.0065     0.3293
A_2     C     0.435     0.2186     0.4034
A_2     C     0.1264     0.2618     0.5793
A_0     C     0.5335     0.2755     0.6931
A_3     C     0.7594     0.676     0.9491
A_1     C     0.7861     0.6374     0.9253
A_1     C     0.9412     0.2531     0.401
A_3     C     0.2253     0.2289     0.4873
A_3     C     0.2484     0.5893     0.1109
A_2     C     0.5403     0.7121     0.7334
A_3     C     0.4219     0.0906     0.9646
A_2     C     0.4411     0.7884     0.6028
A_3     C     0.6182     0.1334     0.1404
A_2     C     0.3388     0.3611     0.4933
A_0     C     0.2618     0.4063     0.5876
A_0     C     0.8613     0.4236     0.9004
A_1     C     0.8269     0.1915     0.112
A_1     C     0.1926     0.2115     0.9576
A_2     C     0.1739     0.6811     0.5178
A_0     C     0.0067     0.0144     0.7926
A_3     C     0.9387     0.2434     0.7014
A_3     C     0.3079     0.6517     0.228
A_1     C     0.9657     0.5595     0.6532
A_3     C     0.8703     0.2841     0.971
A_3     C     0.7428     0.4165     0.0469
A_0     C     0.1666     0.5448     0.3613
A_2     C     0.3598     0.3966     0.7742
A_3     C     0.4339     0.1357     0.2796
A_0     C     0.4203     0.267     0.5606
A_1     C     0.4692     0.3165     0.0546
A_2     C     0.3205     0.1877     0.9499
A_3     C     0.5752     0.7399     0.5103
A_2     C     0.1497     0.6795     0.8853
A_3     C     0.8932     0.1781     0.0868
A_1     C     0.4242     0.4656     0.9954
A_1     C     0.0625     0.9166     0.2401
A_2     C     0.7902     0.1686     0.3102
A_1     C     0.8905     0.264     0.5044
A_3     C     0.4117     0.3572     0.1369
A_1     C     0.4729     0.6396     0.4406
A_1     C     0.0232     0.0845     0.359
A_0     C     0.4329     0.1311     0.3358
A_3     C     0.9896     0.825     0.6055
A_0     C     0.2781     0.0335     0.4492
A_0     C     0.0323     0.1558     0.9624
A_0     C     0.2192     0.0275     0.6811
A_2     C     0.1958     0.9074     0.004
A_0     C     0.7588     0.5434     0.1777
A_1     C     0.5262     0.1549     0.9207
A_1     C     0.3966     0.2017     0.5592
A_1     C     0.0883     0.5115     0.3932
A_1     C     0.7032     0.0381     0.4765
A_3     C     0.5263     0.1078     0.4588
A_2     C     0.1723     0.0605     0.1536
A_1     C     0.8693     0.1379     0.7175
A_1     C     0.8596     0.5443     0.3055
A_1     C     0.9601     0.288     0.5343
A_3     C     0.6117     0.9813     0.5129
A_1     C     0.6017     0.6438     0.447
A_0     C     0.718     0.6786     0.2496
A_1     C     0.8564     0.4478     0.3301
A_3     C     0.1967     0.3123     0.3587
A_3     C     0.2138     0.602     0.5495
A_2     C     0.6028     0.5903     0.07
A_2     C     0.9336     0.0918     0.0235
A_3     C     0.8866     0.874     0.8007
A_0     C     0.7493     0.9363     0.2471
A_1     C     0.2657     0.5881     0.4587
A_0     C     0.4612     0.7975     0.4985
A_2     C     0.5744     0.8598     0.2945
A_3     C     0.4184     0.2193     0.0108
A_2     C     0.6059     0.388     0.8305
A_1     C     0.1953     0.227     0.7181
A_1     C     0.5383     0.4582     0.0722
A_0     C     0.2177     0.9841     0.8601
A_0     C     0.875     0.8887     0.5266
A_3     C     0.5135     0.9882     0.5582
A_3     C     0.92     0.1401     0.8032
A_2     C     0.9177     0.829     0.3935
A_3     C     0.7867     0.1108     0.9919
A_0     C     0.8355     0.6649     0.938
A_2     C     0.43     0.7104     0.5205
A_2     C     0.1966     0.3244     0.7495
A_2     C     0.8523     0.4888     0.6682
A_1     C     0.2159     0.196     0.2354
A_3     C     0.1805     0.1463     0.0206
A_1     C     0.5837     0.0555     0.8468
A_2     C     0.1287     0.573     0.1944
A_3     C     0.9186     0.4095     0.4675
A_3     C     0.3532     0.2688     0.5274
A_0     C     0.7381     0.9119     0.6851
A_1     C     0.7333     0.5487     0.0318
A_3     C     0.8056     0.5525     0.0885
A_1     C     0.5345     0.6706     0.9363
A_0     C     0.3882     0.5455     0.5559
A_2     C     0.5304     0.3914     0.6987
A_3     C     0.3485     0.2919     0.2822
A_0     C     0.3056     0.653     0.002
A_0     C     0.2425     0.5637     0.4286
A_1     C     0.4063     0.3183     0.2836
A_0     C     0.1732     0.2223     0.7496
A_2     C     0.0478     0.3858     0.6224
A_3     C     0.2577     0.2938     0.5928
A_2     C     0.2227     0.1994     0.9583
A_2     C     0.5638     0.8402     0.7319
A_2     C     0.5208     0.9455     0.5867
A_0     C     0.8398     0.6606     0.4156
A_1     C     0.3987     0.631     0.1166
A_2     C     0.4039     0.6449     0.9075
A_1     C     0.1773     0.0016     0.0159
A_3     C     0.8349     0.5652     0.2236
A_1     C     0.7018     0.8574     0.4999
A_0     C     0.1628     0.1706     0.4897
A_1     C     0.6903     0.6365     0.3844
A_1     C     0.9921     0.8547     0.7504
A_1     C     0.2     0.8353     0.9772
A_3     C     0.4725     0.5293     0.0827
A_1     C     0.0453     0.2821     0.6528
A_1     C     0.7195     0.7296     0.7508
A_1     C     0.1151     0.5321     0.2512
A_2     C     0.0619     0.2527     0.9423
A_3     C     0.9097     0.7587     0.433
A_0     C     0.4286     0.1848     0.3807
A_0     C     0.7688     0.525     0.2115
A_2     C     0.9974     0.2152     0.3987
A_0     C     0.359     0.2297     0.8096
A_3     C     0.3719     0.3559     0.5491
A_3     C     0.7832     0.9242     0.1553
A_0     C     0.2215     0.1813     0.7079
A_2     C     0.878     0.6237     0.2553
A_3     C     0.8163     0.9906     0.8882
A_0     C     0.8971     0.1345     0.991
A_3     C     0.0387     0.6109     0.4712
A_3     C     0.7933     0.7744     0.0852
A_3     C     0.1607     0.6336     0.7893
A_3     C     0.709     0.7981     0.5278
A_1     C     0.8331     0.5575     0.6392
A_2     C     0.231     0.7459     0.9979
A_0     C     0.7999     0.358     0.4026
A_3     C     0.0012     0.7993     0.5375
A_3     C     0.1755     0.1585     0.0022
A_2     C     0.341     0.6242     0.9799
A_3     C     0.5267     0.5752     0.1027
A_3     C     0.6362     0.7131     0.6112
A_2     C     0.7797     0.8167     0.7612
A_2     C     0.5856     0.6089     0.4027
A_0     C     0.7157     0.6789     0.6372
A_0     C     0.2808     0.6008     0.9813
A_2     C     0.5251     0.5845     0.7311
A_1     C     0.4047     0.1956     0.6831
A_2     C     0.8693     0.9265     0.9947
A_1     C     0.2051     0.8324     0.8437
A_2     C     0.7643     0.2118     0.1213
A_2     C     0.9569     0.8968     0.859
A_1     C     0.7596     0.1608     0.1706
A_2     C     0.173     0.9576     0.9204
A_1     C     0.4893     0.4545     0.2083
A_2     C     0.1551     0.0649     0.6859
A_1     C     0.5052     0.3271     0.5786
A_0     C     0.4606     0.394     0.6998
A_1     C     0.0426     0.7214     0.5568
A_0     C     0.2929     0.6611     0.9698
A_2     C     0.505     0.0437     0.4753
A_1     C     0.7661     0.7441     0.5391
A_3     C     0.2713     0.7011     0.5307
A_0     C     0.3968     0.6885     0.0043
A_3     C     0.3815     0.612     0.5428
A_2     C     0.7351     0.8181     0.7503
A_0     C     0.8403     0.5745     0.1535
A_0     C     0.1874     0.8224     0.2084
A_3     C     0.074     0.7567     0.3701
A_1     C     0.6425     0.2174     0.8755
A_0     C     0.3866     0.8677     0.0804
A_0     C     0.1627     0.4368     0.3306
A_3     C     0.0804     0.2095     0.0021
A_1     C     0.8191     0.0589     0.7228
A_3     C     0.5598     0.3252     0.9854
A_2     C     0.8743     0.9353     0.16
A_2     C     0.9221     0.4046     0.7188
A_3     C     0.4258     0.556     0.8306
A_2     C     0.5154     0.8009     0.4903
A_2     C     0.5017     0.7365     0.2665
A_3     C     0.4674     0.3009     0.4104
A_2     C     0.9598     0.5473     0.7662
A_3     C     0.1631     0.6433     0.295
A_3     C     0.9874     0.9029     0.3362
A_2     C     0.9287     0.1001     0.2607
A_0     C     0.2216     0.944     0.5402
A_1     C     0.9476     0.9234     0.189
A_2     C     0.3498     0.1413     0.8376
A_0     C     0.5554     0.5679     0.3415
A_2     C     0.4016     0.4744     0.1769
A_2     C     0.0237     0.1519     0.9264
A_2     C     0.1956     0.657     0.8452
A_1     C     0.1635     0.2726     0.0112
A_1     C     0.2808     0.4514     0.3764
A_3     C     0.9719     0.0849     0.8149
A_0     C     0.6629     0.4624     0.7965
A_3     C     0.1847     0.8529     0.693
A_2     C     0.0335     0.4839     0.9318
A_2     C     0.2078     0.202     0.7589
A_2     C     0.5093     0.3377     0.7509
A_0     C     0.0087     0.5888     0.2732
A_2     C     0.0272     0.8247     0.9028
A_3     C     0.0065     0.3427     0.0754
A_0     C     0.9656     0.3043     0.647
A_2     C     0.8804     0.6668     0.0315
A_3     C     0.4969     0.2782     0.2221
A_3     C     0.4884     0.8115     0.6243
A_1     C     0.6601     0.5161     0.6786
A_3     C     0.4898     0.0889     0.88
A_0     C     0.8618     0.5055     0.4349
A_1     C     0.1749     0.9509     0.8508
A_3     C     0.6464     0.814     0.0923
A_2     C     0.1376     0.3261     0.824
A_0     C     0.377     0.1119     0.7062
A_0     C     0.7815     0.5639     0.8311
A_0     C     0.6186     0.264     0.2846
A_3     C     0.3526     0.5846     0.1565
A_1     C     0.3579     0.5886     0.0616
A_0     C     0.6255     0.2724     0.3626
A_2     C     0.4271     0.0399     0.5393
A_3     C     0.5316     0.532     0.7229
A_0     C     0.3695     0.8832     0.243
A_3     C     0.7079     0.0532     0.2425
A_2     C     0.0874     0.2124     0.5123
A_2     C     0.7671     0.299     0.3951
A_0     C     0.0967     0.0486     0.7122
A_3     C     0.908     0.649     0.9201
A_0     C     0.1934     0.8907     0.4867
A_0     C     0.2534     0.621     0.7122
A_2     C     0.2822     0.8972     0.1834
A_3     C     0.4311     0.5652     0.5864
A_0     C     0.5874     0.9175     0.5662
A_3     C     0.4581     0.894     0.7805
A_0     C     0.6881     0.0468     0.1948
A_2     C     0.2916     0.3102     0.6898
A_2     C     0.6127     0.3452     0.4364
A_3     C     0.52     0.8995     0.48
A_2     C     0.5243     0.8551     0.4392
A_3     C     0.4891     0.5045     0.5059
A_3     C     0.3382     0.6726     0.1144
A_1     C     0.9653     0.5364     0.2843
A_2     C     0.3815     0.1225     0.0633
A_3     C     0.0646     0.5124     0.4636
A_1     C     0.5708     0.9544     0.1683
A_1     C     0.9747     0.264     0.565
A_0     C     0.4924     0.4763     0.2858
A_0     C     0.2505     0.9244     0.1147
A_3     C     0.8023     0.9448     0.3553
A_2     C     0.6194     0.2692     0.3138
A_3     C     0.3695     0.4828     0.2656
A_3     C     0.0418     0.1142     0.5863
A_1     C     0.1234     0.9239     0.1782
A_2     C     0.6074     0.9559     0.9283
A_3     C     0.5114     0.8983     0.6031
A_2     C     0.96     0.5118     0.0261
A_0     C     0.2832     0.9195     0.7585
A_2     C     0.3202     0.301     0.382
A_2     C     0.4543     0.3657     0.3308
A_1     C     0.0165     0.5694     0.686
A_1     C     0.1378     0.3819     0.0967
A_2     C     0.2353     0.2525     0.0259
A_3     C     0.7959     0.6351     0.2751
A_2     C     0.738     0.065     0.7292
A_0     C     0.0097     0.0541     0.0228
A_3     C     0.4378     0.7214     0.624
A_1     C     0.2017     0.245     0.7048
A_3     C     0.5111     0.8458     0.774
A_3     C     0.3921     0.5064     0.8003
A_0     C     0.9392     0.6976     0.6712
A_2     C     0.7213     0.1672     0.6289
A_3     C     0.4385     0.2257     0.9398
A_3     C     0.4549     0.6705     0.7512
A_1     C     0.9243     0.4993     0.8204
A_3     C     0.1498     0.3893     0.1379
A_3     C     0.7273     0.7961     0.6105
A_0     C     0.2132     0.7703     0.3181
A_3     C     0.2155     0.2768     0.6254
A_1     C     0.995     0.6045     0.3379
A_2     C     0.2983     0.8187     0.9438
A_1     C     0.0493     0.6988     0.6424
A_0     C     0.5819     0.6527     0.5489
A_3     C     0.2559     0.817     0.2719
A_1     C     0.3074     0.5353     0.6473
A_0     C     0.1795     0.0289     0.2711
A_3     C     0.2913     0.7878     0.608
A_1     C     0.662     0.3162     0.7044
A_2     C     0.9358     0.8868     0.9465
A_0     C     0.9985     0.724     0.1993
A_2     C     0.4022     0.1141     0.9165
A_1     C     0.6959     0.5633     0.4549
A_2     C     0.9015     0.512     0.9302
A_0     C     0.0647     0.7937     0.3171
A_3     C     0.2283     0.5608     0.2867
A_1     C     0.2062     0.8484     0.235
A_2     C     0.7821     0.6542     0.439
A_0     C     0.0176     0.2611     0.6213
A_2     C     0.0796     0.8477     0.8832
A_2     C     0.6656     0.0099     0.7834
A_3     C     0.3453     0.4685     0.2583
A_3     C     0.7461     0.322     0.6496
A_0     C     0.4732     0.0346     0.0974
A_0     C     0.5817     0.902     0.508
A_0     C     0.5157     0.0126     0.4659
A_0     C     0.984     0.975     0.4922
A_1     C     0.4054     0.1398     0.7198
A_2     C     0.2121     0.8612     0.1065
A_1     C     0.8032     0.1253     0.958
A_2     C     0.4022     0.1168     0.3627
A_0     C     0.3121     0.7263     0.4422
A_1     C     0.9446     0.8488     0.4151
A_1     C     0.5107     0.5254     0.3942
A_0     C     0.8849     0.7052     0.3989
A_2     C     0.8884     0.625     0.3381
A_1     C     0.0389     0.1029     0.6692
A_0     C     0.105     0.0475     0.0842
A_3     C     0.8732     0.2157     0.0384
A_0     C     0.3865     0.6249     0.4249
A_1     C     0.9551     0.096     0.063
A_2     C     0.7917     0.7009     0.2882
A_0     C     0.9405     0.9785     0.849
A_0     C     0.9981     0.775     0.5442
A_3     C     0.3657     0.5946     0.623
A_0     C     0.864     0.6697     0.5491
A_3     C     0.5114     0.4529     0.7205
A_2     C     0.2773     0.2375     0.4537
A_1     C     0.807     0.1937     1.0
A_1     C     0.7746     0.9664     0.791
A_0     C     0.4289     0.6059     0.9689
A_3     C     0.8446     0.5546     0.3465
A_0     C     0.4555     0.6093     0.4652
A_2     C     0.7906     0.6745     0.6029
A_3     C     0.6069     0.8164     0.4748
A_1     C     0.4627     0.0632     0.9228
A_3     C     0.301     0.8562     0.0901
A_3     C     0.1478     0.8948     0.2807
A_2     C     0.372     0.6223     0.8189
A_2     C     0.9874     0.9196     0.0737
A_0     C     0.9795     0.2867     0.3005
A_1     C     0.5866     0.0419     0.5465
A_2     C     0.99     0.1866     0.6577
A_2     C     0.1668     0.116     0.8468
A_3     C     0.539     0.5365     0.8029
A_2     C     0.1202     0.8847     0.7099
A_3     C     0.2068     0.5408     0.9111
A_3     C     0.0892     0.3816     0.6667
A_3     C     0.7806     0.3945     0.0705
A_2     C     0.333     0.2163     0.6828
A_0     C     0.1493     0.1946     0.2861
A_1     C     0.3512     0.8446     0.4566
A_1     C     0.3737     0.0296     0.2568
A_0     C     0.5238     0.5407     0.3933
A_0     C     0.1114     0.1444     0.9666
A_3     C     0.9665     0.4926     0.3184
A_1     C     0.1607     0.3235     0.7043
A_0     C     0.6498     0.84     0.2132
A_3     C     0.8343     0.79     0.9924
A_0     C     0.7207     0.5976     0.2336
A_1     C     0.2126     0.5253     0.9512
A_3     C     0.2441     0.8506     0.9787
A_0     C     0.481     0.4696     0.868
A_0     C     0.2255     0.1296     0.7611
A_2     C     0.5886     0.1033     0.1494
A_1     C     0.3364     0.0741     0.8059
A_2     C     0.3394     0.2838     0.4219
A_2     C     0.5709     0.2279     0.9491
A_1     C     0.5743     0.066     0.1625
A_2     C     0.5734     0.5096     0.8224
A_1     C     0.7428     0.8311     0.9917
A_2     C     0.6136     0.9759     0.8264
A_0     C     0.2867     0.359     0.6186
A_0     C     0.494     0.3223     0.672
A_3     C     0.1747     0.4254     0.0005
A_2     C     0.8436     0.6376     0.1738
A_2     C     0.1955     0.1499     0.6843
A_3     C     0.3661     0.6222     0.6921
A_3     C     0.8706     0.7025     0.6096
A_3     C     0.6266     0.5204     0.7252
A_0     C     0.0169     0.8013     0.5672
A_1     C     0.3977     0.0245     0.2981
A_3     C     0.4413     0.625     0.2663
A_2     C     0.8138     0.457     0.2774
A_0     C     0.5055     0.6335     0.8032
A_0     C     0.4032     0.031     0.3828
A_1     C     0.5315     0.9157     0.756
A_2     C     0.7175     0.8302     0.6359
A_0     C     0.9844     0.172     0.3566
A_0     C     0.9522     0.5095     0.1418
A_2     C     0.2873     0.8442     0.7239
A_3     C     0.6679     0.8217     0.2419
A_2     C     0.3989     0.426     0.0438
A_0     C     0.6039     0.7958     0.905
A_1     C     0.0631     0.6044     0.931
A_1     C     0.6785     0.5997     0.5019
A_0     C     0.4545     0.6178     0.0777
A_2     C     0.7626     0.2215     0.9808
A_2     C     0.7707     0.3843     0.0179
A_0     C     0.6214     0.1806     0.0165
A_1     C     0.9593     0.3837     0.9583
A_0     C     0.9462     0.9247     0.1472
A_0     C     0.8936     0.3079     0.7886
A_3     C     0.3698     0.6087     0.6809
A_3     C     0.2294     0.0736     0.6613
A_2     C     0.402     0.5253     0.8942
A_1     C     0.8994     0.9004     0.0776
A_0     C     0.5894     0.1961     0.5775
A_1     C     0.7468     0.4489     0.5986
A_3     C     0.0071     0.9001     0.4187
A_0     C     0.5274     0.4472     0.8965
A_1     C     0.8367     0.3414     0.9571
A_1     C     0.839     0.0543     0.9118
A_2     C     0.2858     0.5315     0.8609
A_2     C     0.3759     0.8851     0.9223
A_0     C     0.9585     0.2065     0.0319
A_0     C     0.0987     0.9735     0.0678
A_2     C     0.4218     0.0607     0.8438
A_1     C     0.2209     0.3654     0.1134
A_1     C     0.3589     0.9406     0.1369
A_2     C     0.528     0.2991     0.5773
A_1     C     0.1441     0.9875     0.0454
A_3     C     0.4798     0.7498     0.0827
A_0     C     0.4942     0.6323     0.0796
A_1     C     0.1493     0.2513     0.3656
A_0     C     0.8352     0.0086     0.6008
A_1     C     0.9502     0.907     0.2443
A_0     C     0.5666     0.6288     0.655
A_3     C     0.7093     0.6381     0.0836
A_3     C     0.6118     0.769     0.538
A_0     C     0.4427     0.2955     0.6983
A_0     C     0.6195     0.0746     0.6966
A_3     C     0.0037     0.2877     0.1394
A_2     C     0.0866     0.1752     0.5417
A_1     C     0.1327     0.6632     0.2706
A_1     C     0.4556     0.4315     0.5637
A_3     C     0.1498     0.4565     0.453
A_3     C     0.1024     0.1175     0.8253
A_0     C     0.1798     0.201     0.9335
A_1     C     0.3845     0.8155     0.3578
A_2     C     0.5796     0.7732     0.9208
A_0     C     0.5465     0.3817     0.9853
A_3     C     0.9896     0.9453     0.2452
A_1     C     0.6551     0.0898     0.9648
A_3     C     0.6854     0.8028     0.7179
A_0     C     0.7327     0.6351     0.6489
A_0     C     0.4404     0.9388     0.439
A_3     C     0.9687     0.1356     0.0678
A_0     C     0.4698     0.3813     0.1548
A_0     C     0.0933     0.6968     0.6229
A_0     C     0.7534     0.0242     0.3931
A_1     C     0.9544     0.8312     0.4643
A_3     C     0.4004     0.9012     0.4144
A_3     C     0.0237     0.3182     0.2432
A_3     C     0.8799     0.2131     0.6569
A_3     C     0.0044     0.5693     0.229
A_1     C     0.4125     0.355     0.0125
A_3     C     0.8546     0.8136     0.6769
A_2     C     0.3177     0.1989     0.6675
A_3     C     0.6514     0.7755     0.9518
A_3     C     0.4658     0.8374     0.5077
A_0     C     0.1567     0.3067     0.6024
A_3     C     0.7436     0.2344     0.5025
A_2     C     0.862     0.5844     0.8052
A_0     C     0.2784     0.8186     0.9046
A_1     C     0.079     0.7544     0.8108
A_1     C     0.7989     0.1712     0.429
A_3     C     0.5949     0.9897     0.1399
A_0     C     0.5926     0.8691     0.082
A_2     C     0.4054     0.7133     0.9117
A_3     C     0.6342     0.5379     0.6773
A_3     C     0.2547     0.4831     0.393
A_2     C     0.2141     0.2516     0.815
A_2     C     0.7042     0.7661     0.2512
A_0     C     0.8505     0.1308     0.5042
A_1     C     0.3826     0.8861     0.7556
A_2     C     0.0546     0.3907     0.7212
A_1     C     0.5842     0.5717     0.2805
A_2     C     0.1831     0.5006     0.3481
A_3     C     0.1123     0.4338     0.8793
A_0     C     0.8549     0.5615     0.9578
A_3     C     0.3433     0.24     0.5589
A_3     C     0.4885     0.2453     0.2819
A_2     C     0.8002     0.6621     0.6392
A_1     C     0.9128     0.7031     0.0344
A_1     C     0.804     0.0791     0.1057
A_0     C     0.541     0.4307     0.2695
A_1     C     0.4725     0.8464     0.0696
A_3     C     0.5617     0.0518     0.2152
A_1     C     0.7778     0.0571     0.4431
A_0     C     0.8061     0.9186     0.6975
A_2     C     0.7799     0.921     0.9268
A_2     C     0.2197     0.9313     0.6751
A_3     C     0.6425     0.7816     0.443
A_3     C     0.4176     0.7669     0.2799
A_2     C     0.2363     0.4026     0.2296
A_2     C     0.5222     0.0047     0.7984
A_3     C     0.8961     0.3162     0.8516
A_3     C     0.2398     0.0988     0.0491
A_0     C     0.6308     0.0742     0.0645
A_2     C     0.6977     0.8122     0.9774
A_3     C     0.0837     0.5913     0.2993
A_2     C     0.3412     0.7917     0.5524
A_3     C     0.7317     0.0633     0.0665
A_0     C     0.5474     0.4304     0.4918
A_0     C     0.8805     0.9146     0.2742
A_1     C     0.9122     0.0965     0.9768
A_3     C     0.1656     0.9192     0.9966
A_1     C     0.2723     0.8945     0.8626
A_3     C     0.7989     0.6932     0.6658
A_1     C     0.1924     0.9879     0.4535
A_3     C     0.5123     0.2417     0.7414
A_0     C     0.4912     0.6473     0.1151
A_0     C     0.4198     0.1311     0.149
A_3     C     0.089     0.6095     0.5611
A_1     C     0.5622     0.4147     0.1801
A_1     C     0.9029     0.6611     0.0514
A_3     C     0.8618     0.1306     0.3527
A_0     C     0.5183     0.1385     0.2093
A_0     C     0.5507     0.4499     0.5873
A_0     C     0.1454     0.4387     0.5652
A_3     C     0.3101     0.8229     0.1655
A_3     C     0.0646     0.1159     0.1638
A_2     C     0.7558     0.9632     0.436
A_3     C     0.3358     0.7322     0.5782
A_0     C     0.3502     0.1034     0.6151
A_1     C     0.2623     0.7793     0.4076
A_3     C     0.0202     0.2141     0.6185
A_1     C     0.0425     0.1078     0.077
A_2     C     0.7012     0.8222     0.7457
A_1     C     0.9752     0.5834     0.0463
A_3     C     0.5664     0.7826     0.4316
A_1     C     0.9388     0.2124     0.0764
A_0     C     0.3726     0.7325     0.8746
A_0     C     0.7867     0.9305     0.6818
A_2     C     0.0223     0.5494     0.7577
A_1     C     0.8178     0.0447     0.9602
A_2     C     0.1511     0.2918     0.8013
A_3     C     0.2562     0.1597     0.5257
A_0     C     0.6523     0.4894     0.7321
A_0     C     0.9017     0.9374     0.1829
A_1     C     0.5101     0.8438     0.7418
A_0     C     0.4897     0.0962     0.7175
A_2     C     0.9941     0.9483     0.6568
A_3     C     0.317     0.0851     0.1448
A_2     C     0.1107     0.8731     0.1779
A_3     C     0.9424     0.2365     0.9509
A_2     C     0.1895     0.451     0.4007
A_0     C     0.0676     0.4139     0.6432
A_3     C     0.7452     0.0157     0.4643
A_1     C     0.9286     0.3967     0.4184
A_3     C     0.8076     0.7145     0.8752
A_2     C     0.3001     0.485     0.3391
A_2     C     0.7017     0.8501     0.6059
A_2     C     0.365     0.5789     0.2487
A_3     C     0.8928     0.6185     0.0021
A_0     C     0.7727     0.3871     0.7894
A_2     C     0.3055     0.3053     0.7646
A_2     C     0.4866     0.8958     0.5866
A_1     C     0.7461     0.3742     0.2951
A_1     C     0.7818     0.8769     0.7494
A_2     C     0.1649     0.779     0.0451
A_1     C     0.1659     0.381     0.5716
A_2     C     0.0934     0.7597     0.3975
A_2     C     0.8682     0.4975     0.865
A_3     C     0.8751     0.9683     0.5434
A_2     C     0.9529     0.3319     0.5009
A_0     C     0.1459     0.3365     0.2557
A_0     C     0.8083     0.8842     0.6082
A_3     C     0.1286     0.8595     0.3735
A_1     C     0.1279     0.4527     0.9309
A_3     C     0.5706     0.9801     0.059
A_2     C     0.2852     0.396     0.8244
A_0     C     0.4491     0.8841     0.8747
A_2     C     0.7419     0.9558     0.2336
A_2     C     0.9487     0.9962     0.8167
A_3     C     0.9534     0.0161     0.6749
A_0     C     0.4528     0.5455     0.7283
A_1     C     0.2925     0.7259     0.7732
A_1     C     0.1781     0.0349     0.2695
A_1     C     0.5141     0.9517     0.8348
A_3     C     0.1667     0.5083     0.0284
A_1     C     0.1769     0.2846     0.6967
A_0     C     0.5755     0.9612     0.5046
A_1     C     0.3585     0.4175     0.4593
A_0     C     0.8493     0.299     0.0662
A_1     C     0.0191     0.2872     0.6903
A_0     C     0.28     0.436     0.9891
A_0     C     0.1298     0.9248     0.0958
A_0     C     0.3043     0.8902     0.4539
A_1     C     0.2459     0.0519     0.5263
A_2     C     0.9223     0.9922     0.6343
A_3     C     0.2374     0.8983     0.1424
A_0     C     0.8328     0.877     0.4177
A_3     C     0.2771     0.5442     0.9317
A_1     C     0.1707     0.8278     0.4493
A_3     C     0.4353     0.989     0.6495
A_0     C     0.4625     0.0905     0.0245
A_0     C     0.3285     0.9432     0.2598
A_3     C     0.9383     0.9571     0.0986
A_0     C     0.3143     0.4386     0.2994
A_1     C     0.6388     0.8905     0.185
A_0     C     0.3584     0.2867     0.7508
A_3     C     0.7948     0.5283     0.4115
A_3     C     0.1874     0.7176     0.0321
A_2     C     0.8035     0.4192     0.9992
A_3     C     0.7484     0.8824     0.579
A_3     C     0.1807     0.4868     0.6411
A_0     C     0.8751     0.029     0.4011
A_2     C     0.04     0.4479     0.1083
A_3     C     0.7895     0.9638     0.2819
A_1     C     0.2124     0.0666     0.2309
A_0     C     0.651     0.6976     0.8797
A_1     C     0.0793     0.6708     0.9054
A_3     C     0.1958     0.5948     0.1607
A_0     C     0.8676     0.8211     0.3574
A_0     C     0.577     0.014     0.9676
A_3     C     0.131     0.9843     0.4832
A_3     C     0.4179     0.9294     0.3312
A_3     C     0.7516     0.8794     0.0787
A_1     C     0.1096     0.2184     0.9321
A_1     C     0.8618     0.1995     0.6706
A_2     C     0.1914     0.2384     0.576
A_0     C     0.841     0.3068     0.7275
A_2     C     0.4052     0.1204     0.885
A_2     C     0.3152     0.7758     0.6867
A_2     C     0.7201     0.7231     0.1933
A_2     C     0.2181     0.1726     0.5241
A_1     C     0.3547     0.7264     0.8014
A_2     C     0.5347     0.1142     0.1202
A_0     C     0.5167     0.8708     0.1027
A_1     C     0.5935     0.7047     0.0536
A_1     C     0.8911     0.6233     0.4552
A_3     C     0.4734     0.2447     0.895
A_1     C     0.9028     0.826     0.1602
A_3     C     0.4804     0.6865     0.2092
A_1     C     0.0704     0.2706     0.8229
A_0     C     0.9852     0.1449     0.3658
A_1     C     0.7795     0.6378     0.5016
A_0     C     0.0908     0.5829     0.3178
A_3     C     0.3878     0.389     0.5283
A_0     C     0.4666     0.2421     0.0492
A_2     C     0.286     0.4367     0.5852
A_1     C     0.0534     0.4491     0.9702
A_0     C     0.7536     0.7345     0.6973
A_3     C     0.9938     0.133     0.9865
A_1     C     0.4652     0.0046     0.4188
A_3     C     0.5898     0.2318     0.7984
A_0     C     0.7333     0.3885     0.5769
A_3     C     0.0976     0.8627     0.5298
A_1     C     0.3166     0.8942     0.2495
A_0     C     0.4235     0.5955     0.7996
A_0     C     0.5484     0.4827     0.1794
A_0     C     0.3617     0.4864     0.9945
A_0     C     0.2344     0.4836     0.3472
A_1     C     0.3885     0.8953     0.3445
A_0     C     0.9691     0.9158     0.1484
A_3     C     0.8153     0.5408     0.9673
A_0     C     0.9591     0.2202     0.3213
A_2     C     0.4057     0.1662     0.8311
A_3     C     0.2129     0.0216     0.08
A_3     C     0.8039     0.4529     0.2823
A_0     C     0.7009     0.4736     0.8214
A_1     C     0.5227     0.7102     0.8391
A_1     C     0.3757     0.2504     0.7253
A_0     C     0.6567     0.7928     0.7861
A_0     C     0.5002     0.2937     0.2724
A_1     C     0.2795     0.7369     0.1819
A_1     C     0.3158     0.1174     0.0186
A_1     C     0.4807     0.2285     0.6991
A_3     C     0.8215     0.9324     0.0361
A_2     C     0.396     0.9072     0.5304
A_0     C     0.8982     0.96     0.1953
A_3     C     0.9533     0.5935     0.1194
A_3     C     0.946     0.5669     0.77
A_1     C     0.6337     0.5838     0.5711
A_1     C     0.0389     0.2549     0.9486
A_1     C     0.6581     0.5869     0.5048
A_3     C     0.232     0.3505     0.219
A_0     C     0.674     0.6958     0.4578
A_2     C     0.6444     0.1441     0.9408
A_0     C     0.2454     0.2733     0.685
A_0     C     0.7583     0.8068     0.4081
A_1     C     0.0538     0.3574     0.8109
A_3     C     0.2838     0.8629     0.083
A_1     C     0.8986     0.3179     0.5407
A_0     C     0.1328     0.7336     0.2065
A_0     C     0.7354     0.5451     0.8237
A_1     C     0.2722     0.8772     0.783
A_1     C     0.2539     0.1418     0.0568
A_1     C     0.9824     0.7788     0.1762
A_0     C     0.3603     0.4161     0.7515
A_1     C     0.0941     0.6828     0.242
A_2     C     0.4605     0.3927     0.3743
A_3     C     0.9808     0.5365     0.0033
A_3     C     0.0197     0.6983     0.6397
A_1     C     0.4783     0.422     0.5726
A_1     C     0.0185     0.5305     0.0212
A_1     C     0.521     0.8739     0.6625
A_1     C     0.7367     0.515     0.1334
A_2     C     0.3969     0.5523     0.2572
A_3     C     0.6172     0.0865     0.8291
A_2     C     0.9381     0.8038     0.7211
A_1     C     0.0609     0.8828     0.4161
A_2     C     0.8952     0.7926     0.434
A_1     C     0.5291     0.67     0.9088
A_0     C     0.3787     0.7203     0.3485
A_2     C     0.9965     0.4315     0.7539
A_3     C     0.7683     0.4988     0.7766
A_0     C     0.4366     0.7035     0.5064
A_0     C     0.2956     0.6926     0.6259
A_0     C     0.8481     0.5995     0.7803
A_1     C     0.0504     0.6089     0.8227
A_3     C     0.0295     0.3914     0.739
A_3     C     0.4591     0.2965     0.8936
A_3     C     0.1746     0.116     0.3268
A_3     C     0.7299     0.2584     0.1917
A_0     C     0.0248     0.5741     0.8265
A_2     C     0.9485     0.1242     0.0805
A_0     C     0.5831     0.488     0.5386
A_3     C     0.3636     0.1864     0.9071
A_2     C     0.0179     0.7421     0.0061
A_2     C     0.1849     0.381     0.5741
A_3     C     0.3673     0.2506     0.0596
A_1     C     0.6276     0.2916     0.3715
A_0     C     0.3177     0.4975     0.084
A_0     C     0.2197     0.0618     0.9573
A_0     C     0.8909     0.5181     0.1108
A_3     C     0.7282     0.953     0.1737
A_0     C     0.4051     0.196     0.325
A_1     C     0.5339     0.7501     0.0159
A_2     C     0.9956     0.2921     0.0857
A_2     C     0.6867     0.4399     0.3979
A_2     C     0.928     0.455     0.505
A_0     C     0.8286     0.4914     0.8521
A_1     C     0.4248     0.4106     0.631
A_0     C     0.2169     0.4235     0.3904
A_2     C     0.4887     0.4856     0.3004
A_1     C     0.2226     0.6848     0.7998
A_1     C     0.8871     0.4983     0.3133
A_2     C     0.7785     0.2486     0.4788
A_2     C     0.8251     0.1509     0.0283
A_1     C     0.0322     0.2415     0.0866
A_3     C     0.9384     0.4048     0.645
A_2     C     0.7601     0.6962     0.1143
A_1     C     0.2961     0.3107     0.896
A_0     C     0.6014     0.4779     0.2451
A_0     C     0.9559     0.5978     0.292
A_0     C     0.2933     0.4384     0.5186
A_0     C     0.2303     0.0641     0.8059
A_3     C     0.3638     0.8868     0.183
A_3     C     0.7343     0.5651     0.2749
A_3     C     0.8808     0.7889     0.4522
A_0     C     0.1509     0.4646     0.959
A_3     C     0.7497     0.0291     0.0007
A_2     C     0.6535     0.096     0.0097
A_3     C     0.7635     0.0556     0.231
A_0     C     0.0883     0.6574     0.566
A_1     C     0.2648     0.2078     0.8842
A_0     C     0.2787     0.5794     0.1032
A_3     C     0.9334     0.0149     0.4017
A_2     C     0.477     0.0588     0.7834
A_0     C     0.5567     0.6751     0.16
A_3     C     0.9161     0.5413     0.0411
A_3     C     0.5524     0.9256     0.8727
A_1     C     0.2416     0.9313     0.5883
A_2     C     0.4696     0.7222     0.8596
A_0     C     0.6516     0.9376     0.3242
A_2     C     0.2327     0.1425     0.4502
A_0     C     0.7358     0.2776     0.9884
A_3     C     0.297     0.8928     0.8312
A_3     C     0.0315     0.7553     0.0965
A_1     C     0.4315     0.1135     0.5251
A_3     C     0.1893     0.313     0.8672
A_2     C     0.6487     0.2131     0.0997
A_0     C     0.8964     0.7816     0.6031
A_3     C     0.5408     0.7394     0.0669
A_2     C     0.5123     0.702     0.5989
A_2     C     0.8308     0.9352     0.0309
A_3     C     0.7928     0.7811     0.3898
A_1     C     0.028     0.2735     0.9294
A_0     C     0.6801     0.926     0.901
A_2     C     0.7652     0.5237     0.8763
A_2     C     0.1838     0.9469     0.2718
A_3     C     0.4714     0.5434     0.8189
A_0     C     0.2094     0.706     0.2137
A_1     C     0.633     0.2222     0.0495
A_3     C     0.0457     0.2545     0.4502
A_3     C     0.4369     0.1706     0.8977
A_2     C     0.9938     0.9472     0.2497
A_1     C     0.1775     0.5998     0.7402
A_1     C     0.8462     0.4213     0.917
A_3     C     0.4089     0.8307     0.9579
A_0     C     0.3604     0.3668     0.7047
A_1     C     0.9186     0.728     0.3525
A_2     C     0.2938     0.443     0.0544
A_3     C     0.1583     0.6984     0.1531
A_0     C     0.4787     0.1073     0.3187
A_3     C     0.5418     0.7926     0.529
A_2     C     0.483     0.6819     0.2994
A_3     C     0.5885     0.1823     0.8808
A_0     C     0.2208     0.9117     0.0902
A_3     C     0.7062     0.192     0.6102
A_1     C     0.0641     0.6381     0.2319
A_3     C     0.503     0.8979     0.4164
A_2     C     0.8929     0.4854     0.6805
A_1     C     0.4338     0.422     0.0469
A_0     C     0.8838     0.0172     0.6938
A_3     C     0.8395     0.8207     0.4443
A_1     C     0.6761     0.173     0.3046
A_2     C     0.2886     0.9938     0.0812
A_1     C     0.6835     0.8452     0.1153
A_1     C     0.2809     0.8751     0.9649
A_0     C     0.1912     0.4823     0.8857
A_3     C     0.6731     0.3612     0.963
A_0     C     0.4483     0.0971     0.7862
A_0     C     0.1598     0.1653     0.6292
A_3     C     0.1445     0.0914     0.7679
A_1     C     0.7582     0.3396     0.4921
A_0     C     0.5163     0.0124     0.8115
A_3     C     0.2696     0.7507     0.7757
A_0     C     0.6103     0.2481     0.266
A_3     C     0.6271     0.3744     0.8535
A_2     C     0.7074     0.0148     0.7357
A_3     C     0.078     0.5993     0.6798
A_0     C     0.6584     0.8044     0.4436
A_1     C     0.2744     0.3249     0.8423
A_1     C     0.886     0.1117     0.4214
A_0     C     0.5581     0.8769     0.201
A_1     C     0.3886     0.1323     0.4149
A_1     C     0.777     0.3733     0.6565
A_1     C     0.3484     0.4975     0.1511
A_1     C     0.3665     0.6432     0.1856
A_3     C     0.114     0.1119     0.981
A_0     C     0.8297     0.0891     0.7633
A_0     C     0.9769     0.8122     0.6116
A_3     C     0.202     0.4185     0.3022
A_1     C     0.0927     0.1123     0.8823
A_0     C     0.2327     0.318     0.6821
A_0     C     0.9241     0.561     0.6756
A_0     C     0.5041     0.7944     0.5682
A_0     C     0.3389     0.4444     0.4884
A_3     C     0.6599     0.1738     0.1485
A_1     C     0.1536     0.1543     0.9296
A_1     C     0.8014     0.4387     0.4792
A_1     C     0.0606     0.5691     0.2981
A_2     C     0.195     0.3467     0.6291
A_2     C     0.2787     0.2691     0.676
A_1     C     0.0502     0.376     0.0181
A_2     C     0.7379     0.6169     0.7022
A_0     C     0.0828     0.2553     0.8226
A_1     C     0.2099     0.4731     0.2411
A_0     C     0.9076     0.7965     0.3087
A_1     C     0.9164     0.4307     0.891
A_3     C     0.7757     0.0334     0.5133
A_2     C     0.1596     0.7678     0.0218
A_0     C     0.3517     0.7966     0.7092
A_0     C     0.3083     0.6285     0.5309
A_0     C     0.835     0.29     0.6374
A_0     C     0.0483     0.1686     0.8211
A_1     C     0.2917     0.1449     0.5537
A_1     C     0.4364     0.0981     0.2497
A_3     C     0.3441     0.9132     0.3305
A_3     C     0.8847     0.7403     0.7208
A_3     C     0.716     0.8721     0.4933
A_0     C     0.7546     0.3269     0.4775
A_2     C     0.8366     0.9853     0.5432
A_0     C     0.4323     0.1586     0.7604
A_3     C     0.8079     0.3978     0.2247
A_3     C     0.8429     0.1752     0.9386
A_1     C     0.6951     0.4365     0.7004
A_0     C     0.6903     0.1903     0.4329
A_0     C     0.2367     0.4744     0.2972
A_2     C     0.6353     0.9787     0.1013
A_2     C     0.1563     0.9911     0.9811
A_1     C     0.7583     0.4138     0.3989
A_1     C     0.5063     0.3477     0.5211
A_2     C     0.5148     0.5226     0.3248
A_1     C     0.5421     0.349     0.8881
A_2     C     0.3481     0.5201     0.456
A_1     C     0.3879     0.7989     0.1643
A_1     C     0.0159     0.6796     0.7595
A_1     C     0.5513     0.4004     0.8745
A_1     C     0.6668     0.2974     0.2885
A_0     C     0.8487     0.9837     0.4623
A_2     C     0.0804     0.7905     0.401
A_2     C     0.0954     0.924     0.4624
A_0     C     0.5143     0.0994     0.3779
A_0     C     0.115     0.1362     0.0792
A_2     C     0.9076     0.6087     0.5004
A_2     C     0.9745     0.6439     0.191
A_0     C     0.4538     0.8275     0.5529
A_2     C     0.4914     0.5622     0.3761
A_0     C     0.4305     0.269     0.447
A_0     C     0.7882     0.5189     0.9356
A_1     C     0.2362     0.2091     0.939
A_1     C     0.438     0.7182     0.8716
A_1     C     0.4635     0.3186     0.8093
A_1     C     0.3858     0.7429     0.9761
A_0     C     0.1556     0.3705     0.7563
A_2     C     0.7942     0.2293     0.73
A_2     C     0.0047     0.626     0.4512
A_2     C     0.9577     0.4468     0.2001
A_0     C     0.703     0.569     0.1859
A_1     C     0.6397     0.0547     0.8067
A_3     C     0.0273     0.2982     0.1738
A_3     C     0.8888     0.8208     0.9627
A_3     C     0.7402     0.3979     0.8472
A_3     C     0.9983     0.5959     0.5957
A_0     C     0.6494     0.6484     0.7181
A_0     C     0.87     0.1597     0.0172
A_2     C     0.6998     0.9856     0.903
A_3     C     0.5058     0.0958     0.5977
A_0     C     0.3666     0.3957     0.8653
A_2     C     0.8601     0.0392     0.4415
A_0     C     0.5108     0.3219     0.1477
A_2     C     0.5362     0.1782     0.2203
A_0     C     0.9319     0.7296     0.0825
A_3     C     0.2203     0.0484     0.8019
A_2     C     0.4037     0.9086     0.0446
A_3     C     0.2481     0.3154     0.0969
A_2     C     0.0614     0.749     0.9127
A_1     C     0.0007     0.6852     0.656
A_3     C     0.1471     0.1356     0.3693
A_0     C     0.9803     0.0621     0.0647
A_0     C     0.3138     0.5242     0.6121
A_3     C     0.1938     0.8216     0.4718
A_1     C     0.3955     0.8013     0.2569
A_1     C     0.0889     0.5182     0.8514
A_0     C     0.5435     0.0993     0.1505
A_0     C     0.7391     0.0512     0.374
A_2     C     0.3795     0.5455     0.5623
A_0     C     0.8231     0.9956     0.1914
A_0     C     0.5702     0.5178     0.2497
A_3     C     0.4668     0.6764     0.3087
A_0     C     0.686     0.2029     0.6964
A_1     C     0.0588     0.9119     0.2094
A_2     C     0.0314     0.5519     0.5118
A_1     C     0.4357     0.3884     0.8391
A_0     C     0.7778     0.4003     0.269
A_1     C     0.9836     0.6004     0.2638
A_3     C     0.1546     0.096     0.498
A_2     C     0.6206     0.7217     0.5753
A_3     C     0.4475     0.0446     0.8635
A_1     C     0.9448     0.0565     0.6646
A_3     C     0.0397     0.8781     0.3815
A_2     C     0.0475     0.8543     0.0344
A_2     C     0.0832     0.0079     0.8433
A_3     C     0.012     0.3058     0.6014
A_3     C     0.1133     0.4881     0.5863
A_2     C     0.4442     0.1376     0.3715
A_1     C     0.9656     0.5445     0.0513
A_1     C     0.8755     0.4989     0.1916
A_1     C     0.1576     0.1245     0.6264
A_3     C     0.0009     0.1151     0.969
A_3     C     0.6181     0.4943     0.1093
A_2     C     0.9706     0.4595     0.9979
A_3     C     0.284     0.2373     0.8664
A_2     C     0.006     0.8115     0.1884
A_1     C     0.0854     0.0914     0.128
A_3     C     0.9882     0.7969     0.2539
A_2     C     0.0465     0.5014     0.869
A_3     C     0.9068     0.7783     0.9933
A_3     C     0.6974     0.5533     0.6423
A_2     C     0.1415     0.5607     0.9827
A_1     C     0.2703     0.3038     0.9794
A_1     C     0.429     0.469     0.5656
A_2     C     0.1207     0.3501     0.5113
A_0     C     0.2157     0.1438     0.4563
A_1     C     0.358     0.1364     0.7447
A_2     C     0.3113     0.8476     0.8053
A_3     C     0.2798     0.6296     0.5219
A_3     C     0.0195     0.6374     0.4117
A_0     C     0.2668     0.5576     0.9702
A_0     C     0.6754     0.89     0.8938
A_1     C     0.031     0.0085     0.1217
A_0     C     0.1861     0.6763     0.7861
A_2     C     0.5021     0.799     0.6864
A_2     C     0.4368     0.2757     0.3091
A_0     C     0.371     0.4067     0.6957
A_2     C     0.4807     0.3463     0.3937
A_1     C     0.914     0.2604     0.2655
A_2     C     0.9499     0.6047     0.3613
A_0     C     0.1079     0.1862     0.5134
A_1     C     0.2465     0.7073     0.0324
A_0     C     0.3027     0.5958     0.6955
A_3     C     0.178     0.9091     0.4435
A_2     C     0.4703     0.3807     0.8029
A_1     C     0.7098     0.1305     0.4417
A_3     C     0.7519     0.5021     0.8491
A_3     C     0.0954     0.8052     0.0896
A_3     C     0.3391     0.6914     0.9101
A_1     C     0.579     0.5887     0.2115
A_3     C     0.5366     0.0593     0.6674
A_1     C     0.6014     0.3808     0.9707
A_2     C     0.0447     0.7869     0.7125
A_2     C     0.2412     0.9596     0.4515
A_0     C     0.3635     0.9827     0.5648
A_1     C     0.9923     0.7317     0.873
A_3     C     0.3037     0.1267     0.8013
A_1     C     0.4763     0.8943     0.5483
A_2     C     0.8114     0.3231     0.0669
A_2     C     0.6786     0.3489     0.7842
A_3     C     0.4253     0.8533     0.5979
A_0     C     0.2467     0.0638     0.4706
A_1     C     0.8467     0.2009     0.8596
A_3     C     0.3558     0.5554     0.0397
A_0     C     0.6059     0.9994     0.9707
A_0     C     0.4728     0.029     0.899
A_3     C     0.6883     0.1691     0.4062
A_3     C     0.5088     0.4541     0.4317
A_3     C     0.93     0.1226     0.9532
A_2     C     0.0397     0.724     0.5408
A_3     C     0.4507     0.6165     0.7192
A_3     C     0.8429     0.9499     0.1731
A_0     C     0.6419     0.2327     0.4436
A_2     C     0.3635     0.855     0.6407
A_0     C     0.0519     0.1262     0.6828
A_1     C     0.0169     0.751     0.3695
A_0     C     0.547     0.6129     0.3554
A_1     C     0.3604     0.9281     0.5961
A_2     C     0.7829     0.704     0.5068
A_3     C     0.1466     0.2583     0.0993
A_0     C     0.026     0.4164     0.5763
A_0     C     0.4591     0.0283     0.0796
A_2     C     0.4174     0.0096     0.9623
A_1     C     0.8319     0.855     0.8171
A_1     C     0.3202     0.4026     0.7007
A_3     C     0.348     0.2765     0.4543
A_0     C     0.3204     0.5343     0.1456
A_3     C     0.2864     0.9996     0.483
A_1     C     0.8743     0.8068     0.9029
A_3     C     0.1063     0.7218     0.1473
A_2     C     0.5225     0.8351     0.3814
A_2     C     0.8257     0.0499     0.1876
A_3     C     0.79     0.2753     0.6674
A_2     C     0.4637     0.8459     0.5207
A_2     C     0.8186     0.8421     0.6648
A_3     C     0.424     0.9692     0.2319
A_0     C     0.5497     0.6849     0.6326
A_2     C     0.4381     0.9481     0.5716
A_2     C     0.1715     0.7588     0.0636
A_0     C     0.5672     0.4696     0.3691
A_2     C     0.6599     0.3296     0.286
A_3     C     0.4804     0.2533     0.6445
A_2     C     0.319     0.471     0.9429
A_1     C     0.1035     0.0904     0.0166
A_3     C     0.6039     0.5236     0.7367
A_2     C     0.3578     0.9371     0.3918
A_2     C     0.7416     0.2579     0.1234
A_0     C     0.5059     0.5829     0.9218
A_0     C     0.1437     0.3066     0.1289
A_0     C     0.4173     0.5371     0.6406
A_1     C     0.2036     0.5308     0.9435
A_0     C     0.8372     0.337     0.0152
A_2     C     0.2506     0.2781     0.1178
A_3     C     0.9415     0.4827     0.1817
A_1     C     0.433     0.7943     0.4572
A_2     C     0.6636     0.4216     0.0656
A_3     C     0.4203     0.5742     0.7438
A_3     C     0.4738     0.3799     0.9983
A_3     C     0.1456     0.2664     0.9809
A_1     C     0.6142     0.6289     0.1797
A_2     C     0.4708     0.9656     0.6584
A_2     C     0.3815     0.9324     0.2044
A_3     C     0.9201     0.6187     0.0712
A_0     C     0.1887     0.368     0.6918
A_3     C     0.9195     0.0754     0.6995
A_1     C     0.5686     0.1728     0.9438
A_0     C     0.3416     0.6109     0.9701
A_3     C     0.0089     0.5808     0.8245
A_2     C     0.6715     0.3945     0.6317
A_2     C     0.7159     0.9203     0.3808
A_2     C     0.9207     0.7939     0.4336
A_2     C     0.1649     0.6619     0.8154
A_3     C     0.4737     0.0066     0.6492
A_2     C     0.3797     0.0042     0.1369
A_0     C     0.6324     0.2601     0.4845
A_3     C     0.3484     0.5291     0.3543
A_3     C     0.2064     0.2192     0.9019
A_2     C     0.6078     0.6854     0.6535
A_1     C     0.1497     0.7169     0.3836
A_1     C     0.0024     0.1324     0.0349
A_1     C     0.9748     0.4228     0.6479
A_0     C     0.0827     0.8065     0.3133
A_1     C     0.829     0.707     0.1131
A_1     C     0.1438     0.6717     0.5675
A_3     C     0.8889     0.8585     0.3666
A_2     C     0.0782     0.2212     0.0044
A_3     C     0.4764     0.7245     0.7593
A_3     C     0.3241     0.6451     0.5965
A_0     C     0.1348     0.7178     0.6448
A_0     C     0.215     0.4991     0.5252
A_1     C     0.9736     0.087     0.8163
A_3     C     0.6893     0.9713     0.8585
A_2     C     0.7316     0.4328     0.8296
A_3     C     0.915     0.7986     0.2521
A_1     C     0.4839     0.2246     0.4948
A_0     C     0.4785     0.1702     0.7548
A_3     C     0.7061     0.4659     0.9372
A_0     C     0.4529     0.1251     0.327
A_3     C     0.263     0.4165     0.4918
A_2     C     0.1789     0.2516     0.0531
A_0     C     0.7613     0.9732     0.9505
A_3     C     0.7867     0.8757     0.0765
A_1     C     0.7699     0.6457     0.4535
A_2     C     0.067     0.9222     0.0522
A_1     C     0.2811     0.4755     0.4567
A_2     C     0.2244     0.2578     0.6983
A_0     C     0.5814     0.0252     0.202
A_1     C     0.9876     0.4026     0.7281
A_3     C     0.4805     0.111     0.0788
A_1     C     0.0307     0.0924     0.5275
A_0     C     0.5643     0.3499     0.44
A_1     C     0.8146     0.4289     0.4453
A_2     C     0.8806     0.7805     0.7631
A_0     C     0.3049     0.1415     0.3203
A_0     C     0.7178     0.4662     0.6704
A_2     C     0.0199     0.6811     0.2386
A_3     C     0.1259     0.7985     0.1392
A_2     C     0.7552     0.7557     0.1516
A_0     C     0.5042     0.6212     0.3205
A_1     C     0.3267     0.413     0.1457
A_3     C     0.2065     0.1169     0.3789
A_2     C     0.0308     0.4553     0.3362
A_1     C     0.1903     0.1505     0.2639
A_3     C     0.5726     0.8466     0.9097
A_0     C     0.082     0.545     0.0514
A_2     C     0.0489     0.4611     0.5048
A_3     C     0.9636     0.7198     0.3555
A_2     C     0.6258     0.2073     0.3
A_1     C     0.886     0.0337     0.9279
A_3     C     0.2732     0.7199     0.8175
A_1     C     0.5458     0.1137     0.2353
A_1     C     0.7588     0.518     0.5558
A_2     C     0.9718     0.6807     0.2385
A_1     C     0.2278     0.6075     0.816
A_2     C     0.3692     0.2567     0.6203
A_3     C     0.0935     0.4029     0.087
A_1     C     0.1593     0.2587     0.602
A_2     C     0.0658     0.438     0.7243
A_3     C     0.6731     0.9517     0.163
A_3     C     0.4032     0.2852     0.3685
A_0     C     0.7368     0.1392     0.8147
A_2     C     0.2143     0.466     0.2463
A_0     C     0.5944     0.8316     0.7117
A_1     C     0.8976     0.7946     0.5698
A_3     C     0.3877     0.2616     0.2263
A_3     C     0.4271     0.7693     0.8313
A_2     C     0.1638     0.8155     0.8612
A_1     C     0.5612     0.2547     0.254
A_1     C     0.0204     0.9357     0.0871
A_0     C     0.3996     0.0102     0.846
A_2     C     0.4091     0.0044     0.9993
A_0     C     0.9573     0.4524     0.1253
A_0     C     0.7244     0.7134     0.6973
A_3     C     0.4025     0.8781     0.8657
A_0     C     0.1528     0.4447     0.2943
A_2     C     0.9309     0.1223     0.2928
A_3     C     0.2639     0.86     0.2433
A_3     C     0.6066     0.316     0.6113
A_1     C     0.5973     0.7239     0.4323
A_0     C     0.3486     0.1502     0.8457
A_3     C     0.4091     0.4707     0.4408
A_1     C     0.6988     0.7355     0.9778
A_1     C     0.0277     0.1881     0.2582
A_3     C     0.256     0.2625     0.7605
A_2     C     0.607     0.7209     0.1852
A_0     C     0.0794     0.6551     0.5177
A_2     C     0.8306     0.6914     0.0289
A_3     C     0.4976     0.682     0.4381
A_3     C     0.4041     0.9798     0.0026
A_3     C     0.0016     0.7549     0.2792
A_2     C     0.2565     0.7459     0.0005
A_2     C     0.1509     0.7109     0.9386
A_0     C     0.7278     0.4844     0.9893
A_0     C     0.6537     0.7125     0.6076
A_2     C     0.4418     0.6752     0.5883
A_1     C     0.9887     0.9587     0.5791
A_3     C     0.1441     0.4767     0.9453
A_3     C     0.9317     0.6301     0.6822
A_2     C     0.0424     0.7246     0.456
A_2     C     0.1764     0.9733     0.2468
A_2     C     0.2876     0.2765     0.5908
A_3     C     0.7802     0.4282     0.9308
A_2     C     0.1273     0.4684     0.0727
A_1     C     0.5518     0.3746     0.1268
A_3     C     0.7541     0.2568     0.2866
A_1     C     0.7681     0.111     0.7603
A_2     C     0.4701     0.4684     0.8129
A_2     C     0.6473     0.4756     0.3707
A_1     C     0.5408     0.9249     0.805
A_0     C     0.8375     0.4601     0.6383
A_1     C     0.7991     0.911     0.3616
A_3     C     0.5338     0.8619     0.1921
A_3     C     0.006     0.6997     0.728
A_0     C     0.0541     0.982     0.7463
A_2     C     0.2587     0.5453     0.847
A_3     C     0.506     0.2226     0.9054
A_1     C     0.9445     0.2158     0.6495
A_1     C     0.8     0.9678     0.9078
A_1     C     0.6441     0.667     0.2011
A_2     C     0.4534     0.7012     0.0848
A_3     C     0.3468     0.9873     0.312
A_3     C     0.0762     0.5331     0.5668
A_0     C     0.4696     0.1531     0.2264
A_2     C     0.4773     0.5598     0.3469
A_2     C     0.5827     0.5342     0.73
A_0     C     0.7034     0.1606     0.7549
A_2     C     0.2846     0.8298     0.7831
A_3     C     0.3005     0.6612     0.6906
A_2     C     0.1836     0.1753     0.9562
A_1     C     0.8418     0.3383     0.7311
A_0     C     0.4959     0.6104     0.7371
A_3     C     0.3579     0.4188     0.4686
A_1     C     0.5521     0.5503     0.8562
A_2     C     0.2126     0.1165     0.9174
A_0     C     0.3668     0.1287     0.9318
A_1     C     0.2415     0.3274     0.1635
A_3     C     0.8622     0.1758     0.706
A_0     C     0.5746     0.7791     0.6074
A_3     C     0.6968     0.911     0.0395
A_0     C     0.7278     0.9793     0.6857
A_2     C     0.0965     0.5176     0.4479
A_3     C     0.3782     0.9134     0.8519
A_1     C     0.9069     0.2621     0.4176
A_3     C     0.0542     0.0437     0.2487
A_2     C     0.5932     0.3119     0.4222
A_1     C     0.5739     0.7544     0.6499
A_1     C     0.7276     0.7997     0.9496
A_0     C     0.146     0.0292     0.3845
A_1     C     0.2351     0.2909     0.1008
A_3     C     0.0584     0.5953     0.8849
A_1     C     0.2351     0.0237     0.4399
A_2     C     0.8159     0.9251     0.7799
A_2     C     0.5389     0.726     0.6444
A_3     C     0.9401     0.6308     0.1294
A_1     C     0.5696     0.6534     0.2633
A_3     C     0.7628     0.0985     0.5631
A_3     C     0.8384     0.5424     0.004
A_2     C     0.3563     0.4632     0.1633
A_1     C     0.8637     0.0758     0.537
A_3     C     0.6242     0.0476     0.98
A_0     C     0.8343     0.2874     0.5919
A_1     C     0.481     0.7082     0.1326
A_2     C     0.5911     0.3462     0.7825
A_3     C     0.5155     0.0257     0.8586
A_0     C     0.1376     0.6966     0.8664
A_1     C     0.2726     0.5161     0.6551
A_1     C     0.941     0.5692     0.5382
A_3     C     0.289     0.962     0.8149
A_0     C     0.0203     0.8001     0.3302
A_0     C     0.0966     0.589     0.3591
A_1     C     0.3449     0.7865     0.0728
A_1     C     0.8446     0.2624     0.7565
A_2     C     0.7272     0.2456     0.1833
A_1     C     0.1041     0.1404     0.5416
A_1     C     0.8622     0.0688     0.1278
A_1     C     0.219     0.0681     0.2276
A_1     C     0.5259     0.1294     0.5788
A_0     C     0.8132     0.1915     0.3509
A_1     C     0.4198     0.1392     0.2331
A_0     C     0.2148     0.581     0.1816
A_0     C     0.4972     0.5531     0.4398
A_3     C     0.9498     0.6419     0.3624
A_0     C     0.0487     0.1987     0.3428
A_3     C     0.7106     0.8221     0.9477
A_2     C     0.4064     0.4845     0.7654
A_2     C     0.5988     0.7238     0.6877
A_3     C     0.6751     0.3988     0.3182
A_0     C     0.034     0.9732     0.1236
A_2     C     0.7172     0.0357     0.8426
A_2     C     0.7018     0.7516     0.6244
A_3     C     0.8395     0.5133     0.7282
A_3     C     0.0425     0.2743     0.0539
A_3     C     0.2359     0.3134     0.918
A_0     C     0.9317     0.4114     0.435
A_3     C     0.7666     0.555     0.2247
A_0     C     0.5699     0.0766     0.3494
A_1     C     0.6948     0.4604     0.1601
A_2     C     0.7482     0.3689     0.7476
A_2     C     0.0972     0.3148     0.6263
A_2     C     0.6824     0.8457     0.7782
A_3     C     0.5968     0.2672     0.6651
A_3     C     0.2516     0.5381     0.0979
A_2     C     0.0414     0.8793     0.4652
A_1     C     0.8073     0.2348     0.565
A_0     C     0.035     0.135     0.3436
A_2     C     0.0149     0.3927     0.6862
A_3     C     0.2052     0.7276     0.4566
A_3     C     0.9379     0.9119     0.8103
A_2     C     0.1865     0.7823     0.5808
A_1     C     0.961     0.7485     0.5765
A_1     C     0.2464     0.732     0.709
A_2     C     0.5384     0.13     0.7543
A_0     C     0.1278     0.8329     0.2359
A_2     C     0.2406     0.9124     0.8847
A_0     C     0.5592     0.5274     0.1684
A_0     C     0.8106     0.3101     0.5993
A_0     C     0.094     0.5273     0.1118
A_0     C     0.2605     0.9301     0.2735
A_0     C     0.5188     0.8909     0.941
A_0     C     0.8508     0.7611     0.2017
A_1     C     0.2642     0.0656     0.6594
A_2     C     0.6785     0.1156     0.3419
A_3     C     0.2312     0.8567     0.0042
A_3     C     0.9615     0.9411     0.866
A_0     C     0.5967     0.87     0.5926
A_0     C     0.9591     0.7737     0.4453
A_2     C     0.623     0.1524     0.1323
A_1     C     0.9285     0.2009     0.933
A_1     C     0.0032     0.9043     0.9412
A_2     C     0.5449     0.6691     0.6609
A_3     C     0.2242     0.8333     0.2348
A_0     C     0.5963     0.8076     0.275
A_1     C     0.486     0.9968     0.8289
A_2     C     0.7319     0.3859     0.2367
A_1     C     0.4134     0.5913     0.409
A_2     C     0.4644     0.6524     0.9655
A_2     C     0.8184     0.3593     0.9177
A_2     C     0.0012     0.3696     0.3382
A_0     C     0.5931     0.5567     0.3692
A_2     C     0.9015     0.0356     0.4077
A_0     C     0.864     0.4677     0.1688
A_3     C     0.0084     0.5397     0.7758
A_3     C     0.8781     0.3447     0.7991
A_2     C     0.4643     0.905     0.3637
A_2     C     0.7864     0.0621     0.2624
A_2     C     0.3465     0.0832     0.7829
A_0     C     0.2459     0.497     0.991
A_0     C     0.3203     0.6284     0.1176
A_2     C     0.2402     0.5579     0.4017
A_2     C     0.6922     0.6154     0.5067
A_3     C     0.2239     0.7364     0.2979
A_2     C     0.9291     0.2754     0.3076
A_3     C     0.3562     0.4095     0.7077
A_0     C     0.6026     0.6885     0.7011
A_2     C     0.8667     0.0668     0.6949
A_0     C     0.6941     0.0256     0.0831
A_2     C     0.5847     0.8292     0.5274
A_3     C     0.6689     0.5037     0.6595
A_0     C     0.3854     0.6846     0.4257
A_2     C     0.0659     0.7581     0.382
A_1     C     0.4474     0.5904     0.6304
A_3     C     0.8197     0.3235     0.4119
A_2     C     0.4224     0.3143     0.183
A_3     C     0.0066     0.3589     0.4954
A_2     C     0.458     0.5008     0.8781
A_1     C     0.515     0.3077     0.3797
A_2     C     0.2204     0.7647     0.8019
A_1     C     0.6808     0.6414     0.593
A_0     C     0.8166     0.5779     0.8145
A_2     C     0.8619     0.0209     0.6185
A_1     C     0.2018     0.2411     0.9492
A_3     C     0.5953     0.9144     0.9645
A_0     C     0.3718     0.9052     0.1074
A_1     C     0.535     0.3545     0.2525
A_0     C     0.7482     0.9845     0.7771
A_0     C     0.3862     0.7395     0.4283
A_3     C     0.8943     0.4772     0.5735
A_0     C     0.2084     0.4021     0.8372
A_0     C     0.4022     0.8011     0.5928
A_2     C     0.469     0.9082     0.9448
A_2     C     0.7215     0.6611     0.8944
A_2     C     0.0493     0.6435     0.8106
A_1     C     0.8322     0.6436     0.8361
A_0     C     0.827     0.6302     0.491
A_2     C     0.1338     0.4806     0.0536
A_1     C     0.9474     0.4776     0.1682
A_1     C     0.8501     0.1969     0.1329
A_0     C     0.9282     0.3477     0.8301
A_2     C     0.4257     0.106     0.0509
A_3     C     0.2005     0.3404     0.6056
A_1     C     0.866     0.3844     0.7683
A_3     C     0.0698     0.4428     0.8398
A_3     C     0.568     0.3847     0.9224
A_3     C     0.6133     0.5241     0.0877
A_0     C     0.0923     0.6973     0.1801
A_2     C     0.7382     0.7021     0.9091
A_2     C     0.108     0.9875     0.7652
A_0     C     0.3218     0.15     0.1497
A_2     C     0.5878     0.731     0.1899
A_1     C     0.4284     0.3139     0.3608
A_0     C     0.9333     0.8946     0.797
A_0     C     0.7262     0.5161     0.6822
A_1     C     0.8517     0.4747     0.2258
A_2     C     0.7956     0.6182     0.7255
A_3     C     0.4414     0.448     0.6429
A_2     C     0.9812     0.6422     0.5945
A_1     C     0.9591     0.0598     0.7081
A_0     C     0.4805     0.4229     0.6245
A_3     C     0.986     0.8754     0.3792
A_1     C     0.4263     0.3818     0.4343
A_0     C     0.1205     0.067     0.8564
A_1     C     0.5531     0.7615     0.2925
A_0     C     0.0066     0.8107     0.0525
A_1     C     0.1416     0.8458     0.178
A_2     C     0.3205     0.7664     0.019
A_0     C     0.2797     0.6663     0.8039
A_0     C     0.7474     0.9115     0.4479
A_3     C     0.5984     0.2225     0.0901
A_2     C     0.7724     0.5641     0.8759
A_0     C     0.7947     0.6587     0.7847
A_2     C     0.6072     0.822     0.0428
A_0     C     0.3769     0.5298     0.0845
A_0     C     0.8927     0.851     0.5082
A_3     C     0.1276     0.1172     0.8909
A_2     C     0.4423     0.6145     0.7734
A_3     C     0.7609     0.308     0.9064
A_0     C     0.0002     0.7285     0.9451
A_3     C     0.4422     0.8486     0.5289
A_0     C     0.0125     0.8903     0.2747
A_2     C     0.7599     0.0775     0.8977
A_2     C     0.5709     0.5208     0.6908
A_2     C     0.0798     0.6004     0.66
A_0     C     0.8394     0.2591     0.6857
A_0     C     0.9724     0.9223     0.8075
A_1     C     0.8678     0.6039     0.1089
A_3     C     0.0108     0.8493     0.2049
A_1     C     0.9186     0.98     0.8364
A_3     C     0.4203     0.3764     0.3514
A_3     C     0.2935     0.5654     0.3815
A_3     C     0.0413     0.4846     0.3431
A_1     C     0.6736     0.011     0.2173
A_3     C     0.5063     0.6117     0.0161
A_0     C     0.7503     0.2319     0.9886
A_0     C     0.0672     0.6598     0.9651
A_0     C     0.2096     0.4332     0.1154
A_2     C     0.8232     0.1772     0.2849
A_1     C     0.739     0.4352     0.72
A_2     C     0.6135     0.6938     0.9157
A_2     C     0.8904     0.1962     0.7557
A_1     C     0.3941     0.5158     0.5433
A_3     C     0.5445     0.2645     0.1623
A_3     C     0.3566     0.2948     0.6396
A_1     C     0.6287     0.7116     0.4732
A_2     C     0.3581     0.4711     0.977
A_0     C     0.1156     0.6045     0.8544
A_0     C     0.0397     0.7397     0.6818
A_2     C     0.6261     0.5873     0.3768
A_3     C     0.4787     0.904     0.6862
A_0     C     0.9716     0.299     0.9812
A_3     C     0.9499     0.3452     0.9642
A_1     C     0.9519     0.3736     0.6158
A_1     C     0.4876     0.4502     0.2295
A_0     C     0.6968     0.1757     0.2577
A_2     C     0.6434     0.9873     0.2082
A_1     C     0.1067     0.2519     0.7142
A_2     C     0.3778     0.8918     0.9098
A_3     C     0.5094     0.6745     0.8009
A_2     C     0.016     0.5435     0.1939
A_0     C     0.626     0.6671     0.5065
A_0     C     0.5553     0.635     0.6408
A_1     C     0.6718     0.565     0.0104
A_3     C     0.545     0.814     0.1436
A_1     C     0.5875     0.7987     0.8719
A_3     C     0.9877     0.6233     0.6318
A_3     C     0.4771     0.5498     0.5562
A_2     C     0.7004     0.2697     0.1551
A_1     C     0.8385     0.4544     0.9028
A_1     C     0.9074     0.5165     0.5903
A_1     C     0.0663     0.2198     0.8982
A_1     C     0.244     0.4945     0.9411
A_3     C     0.6235     0.9984     0.6477
A_1     C     0.1892     0.5538     0.8579
A_0     C     0.3133     0.5378     0.5398
A_0     C     0.1928     0.0424     0.2827
A_3     C     0.5995     0.4265     0.0751
A_2     C     0.5016     0.5053     0.2763
A_1     C     0.2556     0.8397     0.5022
A_2     C     0.6726     0.1216     0.5484
A_0     C     0.0091     0.7331     0.763
A_3     C     0.4183     0.8655     0.129
A_3     C     0.1108     0.0726     0.5498
A_0     C     0.3091     0.1383     0.6216
A_2     C     0.3207     0.0815     0.9665
A_0     C     0.5301     0.7788     0.3262
A_0     C     0.1376     0.8841     0.3719
A_0     C     0.1529     0.9634     0.6739
A_3     C     0.3291     0.0211     0.3932
A_1     C     0.3391     0.7656     0.2532
A_2     C     0.7488     0.3776     0.8628
A_3     C     0.6367     0.0552     0.1118
A_1     C     0.0349     0.7668     0.9186
A_1     C     0.6597     0.4921     0.6747
A_3     C     0.7029     0.3549     0.3416
A_3     C     0.4679     0.846     0.4365
A_3     C     0.0406     0.4248     0.3788
A_3     C     0.2708     0.5997     0.2376
A_2     C     0.3177     0.5197     0.9604
A_1     C     0.2258     0.8179     0.273
A_2     C     0.2708     0.564     0.0773
A_2     C     0.0584     0.4906     0.0552
A_0     C     0.9012     0.9324     0.0777
A_1     C     0.3568     0.3672     0.8697
A_1     C     0.3734     0.3382     0.5303
A_0     C     0.0285     0.4142     0.2751
A_1     C     0.5985     0.388     0.8982
A_3     C     0.7061     0.8265     0.8859
A_3     C     0.4936     0.1185     0.6038
A_1     C     0.8866     0.1734     0.122
A_3     C     0.5859     0.2078     0.5354
A_2     C     0.0186     0.6191     0.9934
A_3     C     0.7227     0.6668     0.1204
A_3     C     0.3865     0.2348     0.6508
A_0     C     0.4079     0.297     0.6104
A_1     C     0.293     0.4653     0.6292
A_0     C     0.887     0.5784     0.1906
A_3     C     0.5932     0.3345     0.8793
A_0     C     0.2352     0.9005     0.5329
A_2     C     0.026     0.4374     0.3202
A_2     C     0.0351     0.1576     0.0299
A_0     C     0.7565     0.9735     0.7517
A_2     C     0.0906     0.2534     0.9866
A_0     C     0.9371     0.3473     0.1304
A_3     C     0.8449     0.0412     0.2087
A_2     C     0.0104     0.1014     0.753
A_1     C     0.1877     0.7879     0.3082
A_3     C     0.6091     0.7924     0.478
A_1     C     0.149     0.2736     0.0385
A_0     C     0.1496     0.2266     0.0817
A_3     C     0.6877     0.7018     0.0649
A_0     C     0.7057     0.6944     0.3275
A_1     C     0.4528     0.9802     0.5718
A_3     C     0.2168     0.5369     0.2039
A_1     C     0.1036     0.658     0.8032
A_1     C     0.1211     0.5023     0.2776
A_2     C     0.8683     0.7813     0.0131
A_1     C     0.9194     0.8933     0.8374
A_0     C     0.1992     0.3194     0.6713
A_3     C     0.4985     0.4061     0.6062
A_1     C     0.7219     0.2104     0.6235
A_3     C     0.3932     0.1722     0.51
A_0     C     0.5524     0.3855     0.9347
A_1     C     0.6221     0.9495     0.4892
A_3     C     0.2868     0.4357     0.0287
A_0     C     0.6212     0.5252     0.0114
A_0     C     0.9591     0.0316     0.2185
A_1     C     0.9773     0.903     0.7089
A_1     C     0.8848     0.9497     0.5152
A_1     C     0.8468     0.0881     0.2755
A_1     C     0.43     0.6806     0.7588
A_1     C     0.1782     0.9943     0.2628
A_1     C     0.101     0.9198     0.1108
A_2     C     0.5695     0.6394     0.1283
A_2     C     0.5974     0.3884     0.2922
A_0     C     0.3496     0.3063     0.0727
A_1     C     0.0412     0.2166     0.9073
A_2     C     0.6315     0.3333     0.7336
A_1     C     0.4984     0.1651     0.0139
A_3     C     0.1014     0.9629     0.9316
A_0     C     0.033     0.7762     0.9924
A_0     C     0.0573     0.0903     0.9581
A_0     C     0.4903     0.9388     0.0778
A_2     C     0.7197     0.8607     0.414
A_1     C     0.6594     0.1787     0.1506
A_1     C     0.7031     0.5721     0.906
A_3     C     0.5183     0.2613     0.5909
A_3     C     0.5884     0.9391     0.7499
A_1     C     0.8316     0.6666     0.4914
A_1     C     0.8641     0.2013     0.8493
A_0     C     0.4564     0.4537     0.4504
A_3     C     0.7763     0.6936     0.7965
A_0     C     0.198     0.9333     0.2167
A_0     C     0.6852     0.2637     0.2595
A_3     C     0.076     0.2935     0.8703
A_1     C     0.5141     0.9796     0.1886
A_1     C     0.4641     0.1248     0.1157
A_1     C     0.3477     0.5931     0.2334
A_3     C     0.24     0.4867     0.823
A_1     C     0.0947     0.9125     0.5509
A_0     C     0.5718     0.5101     0.685
A_1     C     0.901     0.7662     0.4527
A_1     C     0.1285     0.1996     0.6864
A_3     C     0.3948     0.6818     0.6724
A_0     C     0.8875     0.5758     0.5901
A_0     C     0.2063     0.927     0.8148
A_3     C     0.2372     0.1916     0.1656
A_1     C     0.001     0.2655     0.4822
A_3     C     0.8274     0.6604     0.8307
A_0     C     0.6142     0.0121     0.0549
A_2     C     0.4334     0.4047     0.3575
A_1     C     0.3298     0.1676     0.1085
A_2     C     0.1053     0.1715     0.047
A_0     C     0.4492     0.486     0.3962
A_3     C     0.1883     0.8399     0.0229
A_2     C     0.8507     0.7809     0.775
A_1     C     0.8792     0.4257     0.4474
A_1     C     0.48     0.9745     0.9559
A_3     C     0.9075     0.7192     0.9105
A_3     C     0.888     0.4775     0.6674
A_3     C     0.2741     0.7165     0.0166
