MAT-28

loop_
_symmetry_equiv_pos_as_xyz
  x,y,z
_cell_length_a          30.2604
_cell_length_b          37.8706
_cell_length_c          46.4232
_cell_angle_alpha       90.0000
_cell_angle_beta        90.0000
_cell_angle_gamma       90.0000
loop_
_atom_site_label
_atom_site_type_symbol
_atom_site_fract_x
_atom_site_fract_y
_atom_site_fract_z
A_1     C     0.7788     0.4243     0.2472
A_2     C     0.719     0.2185     0.7138
A_0     C     0.6418     0.3701     0.8929
A_3     C     0.7621     0.2253     0.3047
A_2     C     0.4703     0.0471     0.988
A_2     C     0.1638     0.2318     0.1097
A_1     C     0.4231     0.4571     0.2337
A_1     C     0.9442     0.9461     0.0627
A_1     C     0.6941     0.6698     0.8132
A_0     C     0.0385     0.4185     0.1511
A_2     C     0.7023     0.9685     0.6214
A_2     C     0.6223     0.3377     0.3473
A_3     C     0.2699     0.7307     0.6202
A_0     C     0.1879     0.8573     0.2818
A_1     C     0.6342     0.2448     0.154
A_1     C     0.2201     0.0504     0.7938
A_3     C     0.2549     0.0279     0.9116
A_1     C     0.4741     0.2024     0.8528
A_3     C     0.5536     0.3055     0.8887
A_2     C     0.55     0.5279     0.4302
A_3     C     0.596     0.3019     0.7425
A_2     C     0.4332     0.5363     0.8254
A_2     C     0.6129     0.482     0.9094
A_0     C     0.3329     0.466     0.9131
A_0     C     0.1363     0.4884     0.4484
A_3     C     0.4828     0.9337     0.2193
A_0     C     0.246     0.5115     0.3291
A_2     C     0.5004     0.8222     0.4295
A_1     C     0.2977     0.5183     0.3498
A_1     C     0.4773     0.3381     0.7888
A_2     C     0.2104     0.2116     0.8926
A_2     C     0.2234     0.381     0.9395
A_0     C     0.9421     0.9634     0.8517
A_1     C     0.5124     0.3141     0.0567
A_2     C     0.7812     0.2392     0.8526
A_2     C     0.233     0.0838     0.7833
A_0     C     0.8126     0.9427     0.7229
A_0     C     0.392     0.4743     0.4537
A_2     C     0.5524     0.6558     0.3803
A_0     C     0.5092     0.1698     0.2772
A_3     C     0.742     0.86     0.8729
A_2     C     0.1369     0.6367     0.1321
A_0     C     0.0351     0.7504     0.8241
A_0     C     0.3577     0.1412     0.8229
A_2     C     0.3563     0.9408     0.7999
A_0     C     0.9311     0.1332     0.429
A_3     C     0.4962     0.4794     0.2836
A_2     C     0.9853     0.1247     0.1324
A_2     C     0.3676     0.9512     0.6256
A_0     C     0.9865     0.7115     0.2461
A_1     C     0.088     0.541     0.0812
A_3     C     0.8159     0.7038     0.5162
A_2     C     0.5862     0.9684     0.5281
A_0     C     0.7947     0.2424     0.1536
A_3     C     0.2592     0.83     0.9032
A_3     C     0.1013     0.8967     0.8271
A_1     C     0.2177     0.1031     0.4241
A_3     C     0.4411     0.1095     0.4128
A_1     C     0.7639     0.0727     0.3321
A_2     C     0.369     0.7904     0.7241
A_2     C     0.994     0.412     0.6922
A_2     C     0.0313     0.4453     0.1527
A_3     C     0.8836     0.3161     0.5134
A_2     C     0.3059     0.7594     0.9276
A_3     C     0.5497     0.8657     0.238
A_0     C     0.3575     0.769     0.9213
A_3     C     0.5692     0.033     0.5145
A_2     C     0.2713     0.3274     0.0039
A_2     C     0.8325     0.1266     0.8655
A_3     C     0.2853     0.7141     0.8421
A_1     C     0.737     0.2157     0.9486
A_1     C     0.8681     0.7407     0.8479
A_0     C     0.4578     0.143     0.802
A_3     C     0.5946     0.1871     0.8233
A_2     C     0.4208     0.9736     0.0231
A_3     C     0.2116     0.0303     0.2858
A_0     C     0.0267     0.7976     0.1536
A_3     C     0.7005     0.2949     0.3422
A_2     C     0.6273     0.1062     0.7905
A_2     C     0.1977     0.2225     0.5
A_0     C     0.5944     0.8219     0.1209
A_2     C     0.951     0.5431     0.7555
A_1     C     0.2943     0.1997     0.9309
A_2     C     0.0308     0.8696     0.8798
A_0     C     0.2975     0.6315     0.1311
A_0     C     0.0611     0.9645     0.1172
A_0     C     0.7863     0.2123     0.1571
A_0     C     0.8318     0.3526     0.2612
A_1     C     0.2136     0.8281     0.226
A_3     C     0.4394     0.5517     0.3798
A_3     C     0.4021     0.1645     0.3341
A_1     C     0.8005     0.1872     0.0976
A_1     C     0.9858     0.9941     0.6562
A_0     C     0.5261     0.4777     0.8779
A_1     C     0.6025     0.6197     0.872
A_2     C     0.6524     0.3282     0.4126
A_3     C     0.0495     0.0843     0.0142
A_2     C     0.9935     0.1521     0.457
A_1     C     0.8013     0.1632     0.9436
A_3     C     0.6638     0.0182     0.9114
A_0     C     0.6463     0.0773     0.2841
A_3     C     0.3964     0.8262     0.2584
A_1     C     0.9935     0.2052     0.2566
A_3     C     0.3909     0.3852     0.0512
A_2     C     0.6491     0.549     0.8807
A_0     C     0.8208     0.951     0.6152
A_1     C     0.4294     0.9451     0.5885
A_3     C     0.2143     0.0506     0.603
A_1     C     0.3055     0.8685     0.3445
A_1     C     0.8255     0.6061     0.5992
A_1     C     0.8972     0.9744     0.4391
A_1     C     0.9042     0.1159     0.9252
A_0     C     0.4043     0.503     0.9192
A_0     C     0.5554     0.5946     0.3119
A_2     C     0.0131     0.5784     0.7572
A_1     C     0.0002     0.9875     0.5014
A_3     C     0.6058     0.4731     0.2175
A_3     C     0.6255     0.1279     0.3832
A_2     C     0.011     0.9308     0.3241
A_2     C     0.8783     0.0631     0.325
A_3     C     0.2395     0.595     0.6851
A_2     C     0.4096     0.8543     0.7252
A_3     C     0.6896     0.1084     0.1945
A_0     C     0.2665     0.9952     0.4355
A_1     C     0.645     0.458     0.9871
A_1     C     0.3727     0.275     0.2112
A_2     C     0.1163     0.4333     0.2998
A_1     C     0.9323     0.5423     0.2484
A_3     C     0.6914     0.8187     0.1641
A_1     C     0.3942     0.6636     0.4306
A_0     C     0.6036     0.6079     0.9722
A_0     C     0.337     0.6981     0.0852
A_3     C     0.7491     0.4265     0.9819
A_2     C     0.9049     0.6471     0.4588
A_3     C     0.7943     0.5535     0.2254
A_2     C     0.4894     0.8641     0.8909
A_2     C     0.6716     0.7268     0.3514
A_3     C     0.1578     0.535     0.2432
A_0     C     0.1734     0.3856     0.0693
A_2     C     0.954     0.3204     0.4918
A_3     C     0.7543     0.0405     0.0096
A_3     C     0.8373     0.2162     0.3956
A_2     C     0.2464     0.3905     0.7568
A_1     C     0.0516     0.9045     0.9713
A_2     C     0.1332     0.5184     0.2197
A_0     C     0.6036     0.2734     0.7118
A_1     C     0.3217     0.2055     0.59
A_3     C     0.6034     0.1256     0.6524
A_1     C     0.5924     0.6127     0.4687
A_1     C     0.1526     0.2347     0.1913
A_1     C     0.335     0.5333     0.8237
A_1     C     0.7593     0.2837     0.0943
A_0     C     0.7796     0.4714     0.2039
A_3     C     0.0951     0.046     0.6405
A_2     C     0.746     0.5189     0.2827
A_3     C     0.096     0.0283     0.0569
A_2     C     0.2478     0.9766     0.3915
A_3     C     0.7985     0.3867     0.6173
A_2     C     0.7353     0.9373     0.7823
A_3     C     0.6668     0.3954     0.2763
A_3     C     0.2772     0.7522     0.1981
A_2     C     0.0374     0.862     0.5851
A_2     C     0.5583     0.7543     0.9931
A_2     C     0.9626     0.0307     0.3645
A_3     C     0.4925     0.9852     0.6647
A_0     C     0.5813     0.2043     0.2078
A_0     C     0.6067     0.8233     0.3471
A_2     C     0.479     0.2788     0.484
A_1     C     0.5077     0.0131     0.4432
A_2     C     0.4878     0.6835     0.6446
A_0     C     0.2584     0.0605     0.4063
A_0     C     0.1247     0.703     0.7341
A_0     C     0.3625     0.9082     0.3268
A_2     C     0.3487     0.251     0.1765
A_1     C     0.3486     0.1052     0.3485
A_3     C     0.875     0.0651     0.1037
A_3     C     0.5282     0.8853     0.6193
A_1     C     0.1363     0.865     0.2195
A_3     C     0.1074     0.5273     0.4846
A_0     C     0.3624     0.2149     0.6903
A_0     C     0.4871     0.4449     0.6065
A_0     C     0.8962     0.8657     0.3009
A_3     C     0.5754     0.3847     0.7087
A_3     C     0.2463     0.0784     0.1526
A_0     C     0.3     0.5815     0.6275
A_0     C     0.2827     0.6977     0.8651
A_1     C     0.7809     0.5807     0.6847
A_0     C     0.8687     0.0263     0.4333
A_1     C     0.9788     0.8872     0.1242
A_1     C     0.0111     0.0754     0.6974
A_2     C     0.6271     0.2281     0.4406
A_0     C     0.526     0.9739     0.7596
A_2     C     0.0289     0.4092     0.9986
A_2     C     0.2424     0.6025     0.0134
A_3     C     0.6325     0.8987     0.7923
A_2     C     0.3032     0.2884     0.1379
A_2     C     0.1687     0.1019     0.1959
A_0     C     0.6343     0.679     0.0546
A_2     C     0.746     0.815     0.1157
A_2     C     0.9474     0.057     0.0204
A_3     C     0.0694     0.0783     0.8761
A_3     C     0.1316     0.0541     0.2261
A_3     C     0.0114     0.7397     0.439
A_0     C     0.8004     0.854     0.1718
A_0     C     0.2084     0.739     0.6929
A_2     C     0.4619     0.0056     0.2422
A_2     C     0.3459     0.7695     0.957
A_0     C     0.86     0.7506     0.5877
A_1     C     0.2069     0.6651     0.0664
A_0     C     0.0479     0.5153     0.7916
A_1     C     0.462     0.3773     0.545
A_0     C     0.3924     0.0445     0.8414
A_0     C     0.02     0.8768     0.8806
A_1     C     0.1473     0.5562     0.4513
A_0     C     0.0177     0.4913     0.414
A_0     C     0.8077     0.0586     0.5831
A_3     C     0.106     0.3397     0.9185
A_1     C     0.3064     0.0564     0.5828
A_2     C     0.1693     0.5454     0.774
A_1     C     0.5885     0.0198     0.4172
A_3     C     0.7525     0.7942     0.774
A_0     C     0.7124     0.3576     0.128
A_0     C     0.1751     0.064     0.0195
A_0     C     0.3691     0.849     0.5735
A_3     C     0.5914     0.874     0.9888
A_1     C     0.4482     0.1774     0.2949
A_3     C     0.3555     0.1496     0.0636
A_0     C     0.0033     0.868     0.859
A_2     C     0.0083     0.5276     0.6342
A_0     C     0.8382     0.4869     0.6626
A_0     C     0.747     0.3271     0.7874
A_0     C     0.3315     0.5273     0.5227
A_2     C     0.1868     0.7332     0.2837
A_3     C     0.0853     0.5304     0.9651
A_2     C     0.8794     0.2468     0.247
A_1     C     0.4727     0.9507     0.0678
A_3     C     0.0438     0.8139     0.1715
A_1     C     0.548     0.6983     0.4814
A_1     C     0.3095     0.7015     0.2065
A_1     C     0.5012     0.3141     0.1627
A_1     C     0.0387     0.0601     0.3599
A_1     C     0.3011     0.9307     0.5883
A_0     C     0.7723     0.5017     0.8414
A_1     C     0.4282     0.3453     0.9026
A_0     C     0.9701     0.3638     0.8357
A_1     C     0.299     0.4597     0.2415
A_1     C     0.9772     0.9059     0.8246
A_2     C     0.8286     0.3088     0.8273
A_2     C     0.3425     0.2126     0.0375
A_2     C     0.8459     0.2294     0.5682
A_2     C     0.2147     0.2149     0.6432
A_3     C     0.669     0.8411     0.5591
A_2     C     0.515     0.0296     0.0272
A_3     C     0.2695     0.2985     0.4672
A_3     C     0.7573     0.6123     0.7129
A_1     C     0.1926     0.8611     0.4203
A_0     C     0.637     0.9341     0.3911
A_3     C     0.8845     0.1224     0.1344
A_2     C     0.9752     0.008     0.5476
A_2     C     0.4514     0.0863     0.1676
A_1     C     0.3917     0.1403     0.511
A_3     C     0.7516     0.1492     0.6864
A_2     C     0.3233     0.2225     0.9648
A_1     C     0.2516     0.6551     0.3832
A_3     C     0.2417     0.8529     0.0172
A_1     C     0.4674     0.7959     0.6963
A_0     C     0.1074     0.3535     0.4243
A_3     C     0.5821     0.9702     0.2897
A_2     C     0.8972     0.5811     0.5144
A_3     C     0.2839     0.8879     0.9353
A_0     C     0.5669     0.5376     0.473
A_3     C     0.2356     0.7723     0.4482
A_0     C     0.7924     0.0882     0.2553
A_0     C     0.9533     0.4806     0.5743
A_3     C     0.9654     0.4473     0.7475
A_1     C     0.0857     0.5117     0.4837
A_1     C     0.827     0.0483     0.0405
A_1     C     0.0239     0.3652     0.1067
A_2     C     0.8443     0.5889     0.6746
A_0     C     0.8138     0.6171     0.3806
A_0     C     0.5036     0.8681     0.0189
A_0     C     0.6402     0.1676     0.5284
A_2     C     0.6551     0.7301     0.243
A_2     C     0.3442     0.674     0.4226
A_0     C     0.5557     0.753     0.6902
A_2     C     0.2047     0.5731     0.9226
A_2     C     0.2641     0.9219     0.2692
A_0     C     0.9576     0.869     0.6201
A_1     C     0.9352     0.0012     0.497
A_2     C     0.3483     0.1796     0.0036
A_1     C     0.5261     0.2311     0.5287
A_1     C     0.2704     0.6735     0.5056
A_3     C     0.2339     0.8089     0.525
A_2     C     0.6911     0.9307     0.3123
A_0     C     0.5867     0.5461     0.0197
A_0     C     0.5461     0.8741     0.1065
A_3     C     0.3984     0.8416     0.0011
A_3     C     0.704     0.3566     0.386
A_3     C     0.9586     0.4429     0.5144
A_2     C     0.3916     0.8626     0.5958
A_0     C     0.3506     0.6402     0.9506
A_1     C     0.6728     0.3265     0.6672
A_3     C     0.0521     0.3379     0.8074
A_1     C     0.7013     0.78     0.6494
A_2     C     0.5611     0.9398     0.9335
A_2     C     0.0715     0.6246     0.9479
A_0     C     0.995     0.6552     0.3136
A_2     C     0.5244     0.6782     0.1032
A_1     C     0.6566     0.2072     0.2871
A_3     C     0.8065     0.2137     0.6722
A_2     C     0.5025     0.0925     0.7372
A_0     C     0.9608     0.2833     0.5263
A_3     C     0.5672     0.6873     0.9294
A_2     C     0.1439     0.2225     0.8708
A_3     C     0.9654     0.5402     0.857
A_1     C     0.6078     0.2451     0.5732
A_0     C     0.926     0.019     0.8337
A_0     C     0.1303     0.9907     0.3003
A_2     C     0.4997     0.4128     0.1569
A_2     C     0.2538     0.1339     0.9953
A_1     C     0.2175     0.5911     0.8129
A_3     C     0.4656     0.5496     0.0878
A_3     C     0.4567     0.0528     0.1145
A_2     C     0.6305     0.9236     0.6019
A_3     C     0.3478     0.9319     0.4241
A_0     C     0.3221     0.8932     0.8024
A_2     C     0.2801     0.1944     0.8287
A_3     C     0.0489     0.8768     0.9415
A_1     C     0.7634     0.1077     0.1825
A_0     C     0.5949     0.4478     0.1404
A_2     C     0.9823     0.454     0.1294
A_0     C     0.4239     0.7739     0.2109
A_3     C     0.7227     0.3957     0.7887
A_0     C     0.8306     0.7853     0.4186
A_0     C     0.5839     0.8703     0.6627
A_1     C     0.6858     0.2798     0.2606
A_3     C     0.6958     0.8752     0.6202
A_2     C     0.1176     0.6409     0.277
A_0     C     0.537     0.2779     0.8394
A_0     C     0.8511     0.0692     0.6898
A_1     C     0.8359     0.3708     0.1957
A_0     C     0.4901     0.5622     0.813
A_2     C     0.3461     0.986     0.2689
A_2     C     0.7361     0.4975     0.6342
A_0     C     0.9948     0.3545     0.7722
A_0     C     0.3632     0.944     0.9595
A_0     C     0.3449     0.603     0.4171
A_1     C     0.6022     0.4416     0.8094
A_3     C     0.0347     0.6075     0.6379
A_1     C     0.093     0.6879     0.5515
A_0     C     0.7061     0.4669     0.3744
A_0     C     0.7347     0.0838     0.5911
A_3     C     0.0818     0.0779     0.5833
A_1     C     0.5524     0.1422     0.4012
A_1     C     0.579     0.8129     0.2132
A_2     C     0.1139     0.5592     0.4553
A_3     C     0.9639     0.8051     0.5598
A_2     C     0.0158     0.0194     0.2563
A_3     C     0.8813     0.843     0.9233
A_2     C     0.0606     0.4648     0.7098
A_2     C     0.4309     0.7931     0.6558
A_2     C     0.95     0.3141     0.777
A_3     C     0.2345     0.4189     0.5255
A_1     C     0.8012     0.6791     0.2585
A_3     C     0.4477     0.2123     0.0008
A_2     C     0.1784     0.218     0.1856
A_1     C     0.4678     0.0663     0.722
A_2     C     0.0142     0.2351     0.4257
A_2     C     0.8729     0.9966     0.787
A_1     C     0.8212     0.2107     0.468
A_2     C     0.2926     0.3755     0.802
A_0     C     0.606     0.4656     0.069
A_3     C     0.1829     0.6162     0.4778
A_0     C     0.293     0.4915     0.4474
A_2     C     0.7132     0.2933     0.7202
A_0     C     0.0945     0.6     0.9995
A_3     C     0.2583     0.6786     0.5953
A_0     C     0.3622     0.616     0.4843
A_3     C     0.9331     0.1342     0.3277
A_2     C     0.956     0.5418     0.5808
A_3     C     0.9808     0.7027     0.349
A_1     C     0.3048     0.5282     0.4795
A_2     C     0.1508     0.2119     0.7383
A_0     C     0.4725     0.0883     0.8608
A_3     C     0.4594     0.348     0.9452
A_3     C     0.9708     0.9147     0.0365
A_1     C     0.5005     0.0115     0.8682
A_3     C     0.7422     0.5152     0.6373
A_0     C     0.8488     0.0805     0.2173
A_2     C     0.5623     0.8067     0.6432
A_0     C     0.7308     0.687     0.1376
A_0     C     0.8899     0.447     0.7041
A_2     C     0.1016     0.3418     0.9859
A_3     C     0.4844     0.7061     0.4191
A_3     C     0.9733     0.1038     0.2261
A_0     C     0.1052     0.6363     0.3847
A_0     C     0.8645     0.2853     0.8378
A_1     C     0.7115     0.2821     0.9141
A_1     C     0.1275     0.5471     0.8141
A_3     C     0.8669     0.4232     0.5451
A_3     C     0.135     0.0988     0.791
A_0     C     0.403     0.8579     0.1785
A_0     C     0.3077     0.3041     0.8979
A_1     C     0.8644     0.6046     0.5236
A_1     C     0.3341     0.0034     0.385
A_1     C     0.2744     0.1574     0.6598
A_3     C     0.7772     0.6544     0.3724
A_2     C     0.4133     0.8423     0.8092
A_0     C     0.0448     0.8494     0.8885
A_3     C     0.83     0.122     0.7346
A_2     C     0.9034     0.2174     0.1991
A_2     C     0.227     0.6601     0.5092
A_3     C     0.8178     0.6538     0.0746
A_2     C     0.4041     0.7234     0.5463
A_2     C     0.1877     0.3846     0.9033
A_1     C     0.5997     0.1803     0.412
A_0     C     0.8636     0.8276     0.4055
A_1     C     0.6507     0.7688     0.6453
A_3     C     0.8877     0.5721     0.6729
A_0     C     0.5728     0.6052     0.3376
A_3     C     0.0743     0.3782     0.9462
A_3     C     0.4085     0.4023     0.7844
A_3     C     0.7202     0.5148     0.1337
A_2     C     0.022     0.1165     0.8071
A_2     C     0.3309     0.699     0.0502
A_0     C     0.0077     0.4234     0.1982
A_3     C     0.4644     0.7053     0.6815
A_2     C     0.3614     0.2157     0.8874
A_1     C     0.1346     0.238     0.3564
A_0     C     0.1555     0.6797     0.8809
A_1     C     0.8899     0.4578     0.8954
A_3     C     0.9762     0.3481     0.2707
A_0     C     0.0317     0.4134     0.1017
A_0     C     0.8156     0.2024     0.8663
A_2     C     0.8635     0.0259     0.6695
A_3     C     0.7466     0.9647     0.4708
A_2     C     0.9042     0.888     0.0523
A_3     C     0.233     0.7389     0.9964
A_0     C     0.5249     0.4907     0.7977
A_0     C     0.2366     0.7456     0.1658
A_0     C     0.8735     0.3643     0.3896
A_1     C     0.8486     0.2827     0.6222
A_2     C     0.4222     0.4889     0.1729
A_1     C     0.4019     0.4306     0.7561
A_2     C     0.639     0.9836     0.3086
A_2     C     0.8091     0.6962     0.6074
A_3     C     0.785     0.1236     0.514
A_0     C     0.6557     0.7568     0.789
A_3     C     0.6065     0.0286     0.4602
A_1     C     0.1104     0.8965     0.4384
A_0     C     0.9411     0.6255     0.6765
A_1     C     0.6379     0.6073     0.3696
A_3     C     0.2678     0.1479     0.5051
A_3     C     0.8246     0.1021     0.5823
A_2     C     0.0453     0.4266     0.6158
A_3     C     0.6702     0.1518     0.6821
A_3     C     0.2433     0.3524     0.0572
A_1     C     0.1186     0.2629     0.4654
A_3     C     0.7229     0.6261     0.5014
A_1     C     0.8556     0.0366     0.2476
A_1     C     0.439     0.8138     0.1434
A_2     C     0.7818     0.7065     0.7706
A_0     C     0.3965     0.8794     0.925
A_1     C     0.093     0.3217     0.3859
A_2     C     0.4163     0.4734     0.3754
A_0     C     0.1322     0.2039     0.5061
A_2     C     0.0433     0.5485     0.6983
A_2     C     0.9532     0.9959     0.5742
A_0     C     1.0     0.5315     0.0942
A_3     C     0.1362     0.8899     0.8512
A_0     C     0.7949     0.6296     0.7744
A_1     C     0.0997     0.1831     0.474
A_2     C     0.8188     0.9961     0.9772
A_3     C     0.338     0.1585     0.5459
A_3     C     0.6144     0.5125     0.3648
A_0     C     0.1997     0.5111     0.8894
A_1     C     0.4451     0.3076     0.6044
A_2     C     0.784     0.8904     0.136
A_3     C     0.6868     0.042     0.4735
A_3     C     0.7031     0.3747     0.8165
A_0     C     0.9657     0.4886     0.3646
A_3     C     0.8791     0.6035     0.24
A_3     C     0.7849     0.3963     0.1822
A_2     C     0.3617     0.5099     0.1999
A_2     C     0.2144     0.0514     0.3382
A_1     C     0.9358     0.642     0.3356
A_2     C     0.721     0.9605     0.3456
A_0     C     0.0618     0.054     0.8412
A_0     C     0.0389     0.737     0.7744
A_0     C     0.4562     0.9355     0.6289
A_0     C     0.5754     0.8042     0.4084
A_2     C     0.6905     0.8187     0.1354
A_0     C     0.4438     0.6617     0.0011
A_1     C     0.7998     0.816     0.4678
A_2     C     0.3596     0.9468     0.0944
A_1     C     0.3202     0.0509     0.9456
A_1     C     0.8467     0.4385     0.1983
A_1     C     0.7905     0.55     0.4249
A_1     C     0.1341     0.6157     0.8465
A_0     C     0.5288     0.9397     0.747
A_2     C     0.2015     0.5098     0.7235
A_0     C     0.6324     0.8094     0.6684
A_2     C     0.9974     0.2759     0.7906
A_3     C     0.426     0.9582     0.426
A_1     C     0.9815     0.0566     0.0373
A_2     C     0.5546     0.7727     0.2977
A_3     C     0.162     0.0601     0.3317
A_3     C     0.1854     0.2929     0.586
A_2     C     0.6977     0.1959     0.4717
A_0     C     0.4399     0.0536     0.8301
A_0     C     0.7205     0.2262     0.8461
A_3     C     0.8618     0.4475     0.3488
A_0     C     0.1892     0.028     0.9147
A_1     C     0.9026     0.2497     0.9608
A_1     C     0.2503     0.1915     0.9251
A_3     C     0.4549     0.7568     0.2975
A_0     C     0.4965     0.2591     0.9798
A_0     C     0.2064     0.1126     0.651
A_2     C     0.7742     0.8844     0.3111
A_2     C     0.9823     0.2169     0.2375
A_2     C     0.2027     0.258     0.6387
A_3     C     0.0506     0.0232     0.3265
A_1     C     0.124     0.7694     0.4141
A_0     C     0.9611     0.5103     0.724
A_0     C     0.1734     0.3646     0.226
A_3     C     0.4796     0.0977     0.6232
A_3     C     0.6522     0.4368     0.746
A_3     C     0.48     0.009     0.6889
A_3     C     0.2931     0.7085     0.4213
A_0     C     0.0042     0.9284     0.6807
A_1     C     0.7661     0.1818     0.2074
A_2     C     0.0511     0.1821     0.3657
A_1     C     0.4337     0.2038     0.6257
A_3     C     0.9441     0.3931     0.8285
A_0     C     0.1328     0.3556     0.8561
A_0     C     0.7796     0.7288     0.8869
A_2     C     0.7462     0.335     0.1022
A_3     C     0.8389     0.3324     0.4104
A_0     C     0.8808     0.4556     0.7307
A_0     C     0.3431     0.7251     0.1637
A_2     C     0.6543     0.7925     0.3344
A_1     C     0.0263     0.0594     0.0522
A_0     C     0.5701     0.3959     0.0063
A_1     C     0.9905     0.748     0.9963
A_0     C     0.7264     0.3765     0.1294
A_1     C     0.8693     0.7457     0.6695
A_3     C     0.9097     0.8179     0.5302
A_1     C     0.0832     0.1856     0.9963
A_1     C     0.14     0.2071     0.7932
A_1     C     0.2701     0.7106     0.6671
A_1     C     0.4038     0.1095     0.3748
A_0     C     0.3479     0.0501     0.249
A_1     C     0.5187     0.5007     0.0245
A_2     C     0.1077     0.6281     0.8938
A_3     C     0.8391     0.8162     0.6692
A_0     C     0.1315     0.3612     0.0697
A_3     C     0.7017     0.8821     0.5206
A_1     C     0.6151     0.3327     0.6364
A_1     C     0.9917     0.0509     0.8072
A_2     C     0.6043     0.5924     0.18
A_3     C     0.5872     0.9062     0.6122
A_3     C     0.3136     0.8959     0.2086
A_2     C     0.6683     0.1725     0.7245
A_1     C     0.88     0.6499     0.2458
A_3     C     0.2819     0.1166     0.332
A_1     C     0.3351     0.7713     0.5024
A_2     C     0.9962     0.9906     0.85
A_3     C     0.6038     0.984     0.3671
A_0     C     0.08     0.209     0.3386
A_3     C     0.4209     0.8418     0.1095
A_2     C     0.5472     0.2143     0.2752
A_0     C     0.064     0.1543     0.821
A_1     C     0.1458     0.9086     0.1612
A_3     C     0.0158     0.3224     0.7681
A_1     C     0.1479     0.5939     0.2553
A_3     C     0.3451     0.3797     0.2271
A_0     C     0.9574     0.0623     0.2268
A_0     C     0.6473     0.4773     0.0186
A_1     C     0.7409     0.611     0.0301
A_2     C     0.9709     0.0714     0.4882
A_1     C     0.5177     0.3657     0.2169
A_1     C     0.086     0.8513     0.0183
A_0     C     0.6641     0.6327     0.2106
A_1     C     0.9616     0.4176     0.4433
A_1     C     0.0572     0.6253     0.1642
A_1     C     0.6214     0.8218     0.2503
A_1     C     0.4751     0.2234     0.2401
A_2     C     0.5025     0.639     0.5906
A_1     C     0.8802     0.4254     0.4055
A_2     C     0.1933     0.53     0.0139
A_3     C     0.4366     0.1555     0.6819
A_3     C     0.1162     0.1952     0.951
A_0     C     0.1252     0.8663     0.8404
A_2     C     0.4283     0.945     0.7359
A_3     C     0.2184     0.8804     0.7636
A_2     C     0.3253     0.996     0.6919
A_1     C     0.1132     0.2194     0.4
A_0     C     0.6556     0.7934     0.4809
A_1     C     0.5011     0.3671     0.1492
A_0     C     0.584     0.0938     0.6193
A_0     C     0.6335     0.579     0.3179
A_0     C     0.4448     0.9684     0.468
A_0     C     0.5134     0.6297     0.0432
A_1     C     0.2567     0.0976     0.0948
A_2     C     0.5114     0.8036     0.4601
A_2     C     0.7876     0.8775     0.658
A_3     C     0.9358     0.8778     0.7444
A_2     C     0.3201     0.203     0.6978
A_0     C     0.3671     0.1834     0.7353
A_3     C     0.3456     0.7265     0.4107
A_0     C     0.5789     0.4833     0.6648
A_1     C     0.0557     0.1475     0.3222
A_3     C     0.8636     0.1525     0.3176
A_0     C     0.0188     0.1259     0.7744
A_0     C     0.0436     0.8895     0.0569
A_0     C     0.9918     0.8968     0.1252
A_2     C     0.0461     0.504     0.856
A_0     C     0.4085     0.5136     0.039
A_3     C     0.662     0.6451     0.9258
A_3     C     0.1966     0.6706     0.1535
A_0     C     0.3935     0.2503     0.5085
A_3     C     0.3849     0.5402     0.0461
A_2     C     0.5843     0.4862     0.0269
A_2     C     0.879     0.2536     0.4579
A_3     C     0.308     0.3155     0.3842
A_1     C     0.3557     0.5836     0.1099
A_1     C     0.9554     0.8487     0.8259
A_3     C     0.4872     0.7973     0.6974
A_0     C     0.8813     0.3344     0.5819
A_3     C     0.0747     0.0676     0.9226
A_2     C     0.8945     0.0122     0.4931
A_0     C     0.9774     0.7409     0.2769
A_2     C     0.5351     0.5947     0.4375
A_3     C     0.2878     0.7257     0.5229
A_0     C     0.1998     0.1447     0.6629
A_0     C     0.6414     0.6872     0.1887
A_2     C     0.463     0.9706     0.5806
A_3     C     0.2788     0.2622     0.3657
A_1     C     0.4587     0.1187     0.5611
A_2     C     0.3559     0.8484     0.0125
A_0     C     0.1681     0.6704     0.6761
A_2     C     0.8355     0.3438     0.4614
A_1     C     0.5486     0.2737     0.6384
A_1     C     0.3592     0.5126     0.5428
A_0     C     0.8273     0.3007     0.513
A_0     C     0.0761     0.2652     0.2982
A_3     C     0.2294     0.8703     0.451
A_2     C     0.4302     0.3692     0.1516
A_2     C     0.5656     0.0792     0.8525
A_3     C     0.8799     0.5429     0.5733
A_1     C     0.2087     0.162     0.7556
A_0     C     0.375     0.3601     0.9755
A_0     C     0.7922     0.8366     0.794
A_1     C     0.7372     0.278     0.0286
A_0     C     0.8773     0.0643     0.4364
A_0     C     0.7629     0.2081     0.2551
A_2     C     0.1224     0.8552     0.4381
A_3     C     0.8675     0.7253     0.2822
A_3     C     0.4711     0.3153     0.7384
A_3     C     0.6449     0.4773     0.6628
A_3     C     0.056     0.2916     0.8937
A_2     C     0.5498     0.6109     0.1276
A_0     C     0.9786     0.3391     0.4792
A_1     C     0.7275     0.0986     0.5651
A_0     C     0.9113     0.4033     0.4117
A_2     C     0.9945     0.1434     0.0651
A_1     C     0.653     0.3538     0.5251
A_0     C     0.0218     0.239     0.874
A_1     C     0.7892     0.1272     0.2704
A_2     C     0.4456     0.0311     0.7
A_0     C     0.558     0.5742     0.3911
A_2     C     0.1844     0.2403     0.4461
A_1     C     0.6458     0.9966     0.6462
A_2     C     0.8773     0.7687     0.0637
A_1     C     0.0325     0.782     0.7844
A_1     C     0.3064     0.6523     0.9526
A_3     C     0.2768     0.0564     0.0205
A_1     C     0.1573     0.9601     0.8982
A_3     C     0.8765     0.0581     0.5313
A_0     C     0.2437     0.8041     0.6743
A_2     C     0.4279     0.1395     0.7238
A_2     C     0.7152     0.2853     0.9704
A_3     C     0.9068     0.7546     0.8947
A_1     C     0.3281     0.2476     0.5302
A_2     C     0.0501     0.0459     0.8751
A_0     C     0.234     0.719     0.648
A_2     C     0.998     0.09     0.7088
A_2     C     0.4445     0.1071     0.1909
A_1     C     0.2763     0.9268     0.8423
A_0     C     0.6168     0.5074     0.4855
A_1     C     0.944     0.7937     0.0313
A_1     C     0.0893     0.1961     0.5933
A_1     C     0.835     0.7786     0.8998
A_3     C     0.8549     0.9963     0.9727
A_1     C     0.2548     0.456     0.6961
A_0     C     0.0199     0.9754     0.8426
A_2     C     0.309     0.1181     0.2912
A_0     C     0.4341     0.0876     0.2931
A_1     C     0.4596     0.7587     0.0004
A_0     C     0.0884     0.6301     0.8511
A_3     C     0.2567     0.8847     0.7197
A_1     C     0.2998     0.415     0.2198
A_1     C     0.5871     0.5595     0.3147
A_3     C     0.5177     0.8813     0.3832
A_1     C     0.5001     0.0498     0.4824
A_1     C     0.7445     0.2231     0.8355
A_3     C     0.3645     0.9055     0.8151
A_2     C     0.1004     0.9928     0.6429
A_1     C     0.3189     0.6473     0.253
A_3     C     0.7803     0.6751     0.6716
A_1     C     0.7515     0.5971     0.6629
A_3     C     0.2924     0.0043     0.6675
A_3     C     0.181     0.3914     0.1179
A_2     C     0.4642     0.0306     0.0237
A_3     C     0.4902     0.4821     0.2035
A_1     C     0.02     0.3649     0.193
A_3     C     0.2442     0.6143     0.7006
A_0     C     0.7759     0.8427     0.3703
A_2     C     0.5566     0.829     0.9794
A_2     C     0.8928     0.5901     0.6792
A_2     C     0.2629     0.0025     0.5065
A_1     C     0.0043     0.7509     0.2013
A_2     C     0.3775     0.3457     0.7566
A_0     C     0.8377     0.5387     0.5155
A_3     C     0.5486     0.8525     0.8823
A_3     C     0.8544     0.8033     0.3001
A_0     C     0.6326     0.769     0.4603
A_3     C     0.1271     0.7926     0.3006
A_3     C     0.4939     0.3462     0.5408
A_2     C     0.1525     0.8851     0.9951
A_2     C     0.4491     0.2286     0.2331
A_3     C     0.7426     0.4185     0.2903
A_0     C     0.7267     0.1016     0.4147
A_2     C     0.4354     0.8278     0.7616
A_2     C     0.7544     0.3553     0.9214
A_2     C     0.1788     0.8718     0.8364
A_0     C     0.6709     0.6233     0.2339
A_1     C     0.15     0.705     0.1006
A_1     C     0.8271     0.5444     0.1019
A_0     C     0.3792     0.4907     0.7501
A_0     C     0.3223     0.0604     0.9438
A_2     C     0.2066     0.229     0.0476
A_2     C     0.4316     0.3819     0.6018
A_1     C     0.8596     0.3654     0.2134
A_0     C     0.7341     0.2547     0.2699
A_2     C     0.8483     0.1072     0.2213
A_1     C     0.9399     0.9048     0.1005
A_1     C     0.2017     0.977     0.1055
A_3     C     0.6303     0.9179     0.8566
A_3     C     0.3931     0.0961     0.498
A_1     C     0.6444     0.565     0.2133
A_0     C     0.0029     0.1132     0.3311
A_2     C     0.672     0.5274     0.2193
A_0     C     0.3784     0.1124     0.8192
A_3     C     0.7379     0.9619     0.5282
A_2     C     0.5111     0.0112     0.3174
A_1     C     0.0128     0.9497     0.6027
A_2     C     0.5231     0.5104     0.0516
A_3     C     0.4277     0.0623     0.202
A_3     C     0.4259     0.1886     0.1311
A_3     C     0.989     0.5961     0.4656
A_3     C     0.7034     0.7026     0.8864
A_0     C     0.7144     0.2255     0.4709
A_2     C     0.3291     0.3768     0.1126
A_1     C     0.5848     0.7457     0.0721
A_0     C     0.1699     0.0636     0.4002
A_2     C     0.0863     0.3106     0.7625
A_1     C     0.6203     0.6556     0.6328
A_2     C     0.7479     0.1411     0.3542
A_3     C     0.5819     0.1437     0.1121
A_1     C     0.4547     0.5748     0.8582
A_3     C     0.5271     0.0905     0.0575
A_1     C     0.4606     0.6587     0.0327
A_1     C     0.5733     0.0328     0.9384
A_3     C     0.1704     0.2685     0.6191
A_0     C     0.7882     0.9676     0.6455
A_2     C     0.7344     0.9262     0.6583
A_3     C     0.6431     0.2793     0.4415
A_0     C     0.3857     0.906     0.5686
A_2     C     0.7516     0.519     0.7927
A_2     C     0.0649     0.7266     0.7201
A_3     C     0.8446     0.9158     0.3358
A_1     C     0.4365     0.0167     0.3223
A_0     C     0.8002     0.2711     0.3101
A_3     C     0.3896     0.4157     0.4359
A_1     C     0.9127     0.3606     0.0701
A_1     C     0.2759     0.8907     0.5175
A_0     C     0.2365     0.5666     0.5914
A_0     C     0.2173     0.5576     0.2171
A_1     C     0.9351     0.7447     0.6457
A_3     C     0.7681     0.2903     0.9405
A_1     C     0.5492     0.4624     0.7883
A_0     C     0.3054     0.4267     0.2186
A_3     C     0.8448     0.9565     0.7966
A_2     C     0.2779     0.2503     0.7332
A_0     C     0.6666     0.9757     0.1105
A_0     C     0.9043     0.8944     0.8584
A_1     C     0.5958     0.0503     0.5794
A_2     C     0.9589     0.128     0.328
A_1     C     0.3176     0.6726     0.6056
A_3     C     0.2728     0.2198     0.3826
A_0     C     0.6799     0.5653     0.7012
A_3     C     0.4212     0.4618     0.2352
A_1     C     0.9592     0.4648     0.1629
A_3     C     0.2369     0.1768     0.7093
A_0     C     0.6888     0.3972     0.391
A_2     C     0.7906     0.5037     0.1333
A_2     C     0.4678     0.8252     0.6565
A_0     C     0.9812     0.6577     0.5004
A_1     C     0.638     0.4365     0.3559
A_3     C     0.5313     0.2206     0.0004
A_2     C     0.3789     0.585     0.5186
A_0     C     0.0337     0.7669     0.6978
A_1     C     0.6024     0.8115     0.4158
A_0     C     0.2094     0.7088     0.9038
A_1     C     0.8208     0.9602     0.6582
A_3     C     0.1928     0.7154     0.1703
A_1     C     0.6593     0.3203     0.1338
A_0     C     0.3629     0.9669     0.7868
A_0     C     0.6399     0.382     0.9328
A_0     C     0.9876     0.4441     0.6588
A_0     C     0.5843     0.7524     0.7921
A_1     C     0.124     0.4518     0.7462
A_2     C     0.561     0.7744     0.3226
A_2     C     0.0969     0.0903     0.2567
A_0     C     0.7347     0.59     0.4765
A_2     C     0.209     0.878     0.8717
A_3     C     0.7379     0.1932     0.0969
A_0     C     0.9808     0.4807     0.3583
A_1     C     0.583     0.8516     0.2408
A_2     C     0.6869     0.803     0.71
A_0     C     0.146     0.7626     0.4697
A_3     C     0.8227     0.9862     0.0129
A_2     C     0.2969     0.7114     0.9146
A_3     C     0.0661     0.7764     0.693
A_0     C     0.6525     0.2646     0.4569
A_0     C     0.775     0.4544     0.4992
A_1     C     0.7488     0.7301     0.391
A_2     C     0.0808     0.3573     0.346
A_1     C     0.2259     0.053     0.1386
A_1     C     0.1469     0.5428     0.6004
A_0     C     0.4919     0.2189     0.8244
A_3     C     0.758     0.6087     0.2775
A_2     C     0.321     0.9187     0.1479
A_0     C     0.4844     0.9077     0.7399
A_3     C     0.7677     0.8161     0.3862
A_0     C     0.564     0.5298     0.9482
A_3     C     0.3821     0.9508     0.4672
A_0     C     0.4246     0.7497     0.537
A_1     C     0.6454     0.9341     0.3775
A_2     C     0.3861     0.0239     0.2857
A_3     C     0.9792     0.3009     0.884
A_0     C     0.7846     0.4268     0.3196
A_3     C     0.46     0.9399     0.5763
A_0     C     0.7963     0.5732     0.6636
A_1     C     0.5853     0.4678     0.0273
A_3     C     0.4668     0.9148     0.5195
A_2     C     0.6974     0.8426     0.0009
A_3     C     0.2045     0.9954     0.8234
A_2     C     0.4168     0.6194     0.2355
A_3     C     0.7439     0.9625     0.996
A_2     C     0.6012     0.5499     0.5288
A_0     C     0.7219     0.7775     0.7656
A_2     C     0.0102     0.6077     0.9638
A_0     C     0.0042     0.0913     0.8653
A_2     C     0.3685     0.1117     0.8315
A_2     C     0.0735     0.9771     0.7457
A_0     C     0.7434     0.9114     0.3637
A_2     C     0.7686     0.4626     0.1779
A_3     C     0.9457     0.6058     0.5441
A_1     C     0.326     0.4052     0.4077
A_0     C     0.5215     0.5825     0.8657
A_1     C     0.2091     0.1695     0.6289
A_1     C     0.6579     0.9393     0.5865
A_2     C     0.5137     0.3916     0.3381
A_0     C     0.9682     0.8889     0.8697
A_3     C     0.3223     0.6109     0.6013
A_3     C     0.3933     0.3023     0.2416
A_1     C     0.0513     0.0076     0.2448
A_0     C     0.1239     0.8847     0.0246
A_3     C     0.7876     0.8744     0.3141
A_0     C     0.0738     0.9627     0.4773
A_0     C     0.5153     0.0729     0.8344
A_1     C     0.5158     0.5184     0.8591
A_0     C     0.4309     0.2083     0.7149
A_0     C     0.9865     0.9996     0.5962
A_2     C     0.1576     0.7384     0.4428
A_1     C     0.084     0.1474     0.935
A_3     C     0.8806     0.8508     0.7748
A_3     C     0.2288     0.9776     0.9858
A_0     C     0.4063     0.385     0.6414
A_2     C     0.6058     0.8321     0.1106
A_1     C     0.1475     0.1414     0.9326
A_2     C     0.9667     0.8906     0.7358
A_0     C     0.2939     0.8805     0.1982
A_3     C     0.4799     0.3451     0.912
A_1     C     0.6953     0.7592     0.8309
A_3     C     0.2979     0.843     0.8813
A_2     C     0.127     0.9394     0.0616
A_0     C     0.263     0.0735     0.0071
A_2     C     0.1735     0.2817     0.0371
A_1     C     0.9937     0.394     0.7763
A_0     C     0.0577     0.8602     0.3542
A_3     C     0.3195     0.9601     0.8229
A_0     C     0.7114     0.1721     0.9207
A_1     C     0.6562     0.0658     0.8107
A_2     C     0.2218     0.5818     0.9021
A_2     C     0.1339     0.0601     0.0042
A_3     C     0.6521     0.6337     0.4011
A_2     C     0.2166     0.0486     0.8955
A_1     C     0.018     0.9085     0.6727
A_1     C     0.2593     0.4956     0.817
A_0     C     0.4263     0.3893     0.4955
A_2     C     0.5865     0.0727     0.9349
A_0     C     0.8924     0.5335     0.5715
A_2     C     0.0653     0.2565     0.4834
A_0     C     0.8033     0.4016     0.799
A_0     C     0.7934     0.8246     0.7918
A_0     C     0.1664     0.001     0.9455
A_1     C     0.2068     0.6486     0.0397
A_3     C     0.468     0.9175     0.3286
A_3     C     0.0054     0.2083     0.9027
A_1     C     0.7936     0.4091     0.3022
A_1     C     0.5225     0.9419     0.6607
A_1     C     0.5868     0.1914     0.8703
A_3     C     0.9895     0.2465     0.8038
A_0     C     0.1444     0.1422     0.6029
A_1     C     0.9389     0.8388     0.5749
A_0     C     0.0431     0.1151     0.0863
A_2     C     0.9606     0.5185     0.5853
A_2     C     0.7602     0.8306     0.1154
A_2     C     0.2569     0.325     0.8724
A_2     C     0.2475     0.3913     0.6324
A_1     C     0.6231     0.6017     0.5138
A_3     C     0.6998     0.8847     0.9012
A_0     C     0.0299     0.5175     0.1994
A_3     C     0.0857     0.5773     0.5738
A_2     C     0.3303     0.2623     0.4068
A_2     C     0.6421     0.0246     0.7125
A_1     C     0.8448     0.6322     0.4795
A_2     C     0.3401     0.821     0.0292
A_1     C     0.8849     0.3654     0.0084
A_2     C     0.704     0.7076     0.4379
A_2     C     0.1673     0.4522     0.4801
A_2     C     0.9968     0.3132     0.4528
A_3     C     0.2591     0.6454     0.6353
A_0     C     0.73     0.4678     0.3833
A_0     C     0.7968     0.7569     0.5642
A_1     C     0.156     0.2757     0.0452
A_1     C     0.4493     0.4537     0.1626
A_0     C     0.5759     0.1786     0.2162
A_3     C     0.6269     0.63     0.8082
A_2     C     0.0475     0.4613     0.0848
A_3     C     0.2065     0.3102     0.1083
A_1     C     0.693     0.0406     0.9332
A_3     C     0.8828     0.4334     0.6637
A_1     C     0.5466     0.4484     0.3148
A_1     C     0.796     0.0985     0.5611
A_1     C     0.7397     0.4507     0.9033
A_2     C     0.9477     0.86     0.2425
A_1     C     0.3261     0.4895     0.1451
A_1     C     0.7424     0.4711     0.8774
A_2     C     0.055     0.1521     0.4253
A_2     C     0.5009     0.9715     0.3229
A_1     C     0.8801     0.9446     0.7816
A_2     C     0.4495     0.615     0.9917
A_0     C     0.879     0.6467     0.8339
A_3     C     0.7965     0.5369     0.2282
A_3     C     0.9805     0.2773     0.8612
A_0     C     0.9546     0.5359     0.5938
A_2     C     0.2403     0.1688     0.0327
A_2     C     0.9627     0.4692     0.8253
A_2     C     0.9597     0.2266     0.0289
A_3     C     0.816     0.1481     0.4823
A_0     C     0.5845     0.1021     0.9309
A_0     C     0.4464     0.8958     0.1417
A_2     C     0.2385     0.82     0.6666
A_3     C     0.2421     0.7487     0.4774
A_2     C     0.6826     0.4883     0.684
A_2     C     0.0488     0.7405     0.5995
A_0     C     0.8688     0.2159     0.9738
A_2     C     0.2665     0.8065     0.0134
A_0     C     0.59     0.8042     0.0684
A_0     C     0.4742     0.8912     0.5951
A_0     C     0.7977     0.2902     0.9212
A_3     C     0.6886     0.2932     0.9999
A_0     C     0.5268     0.1718     0.3539
A_3     C     0.772     0.7693     0.5539
A_3     C     0.1227     0.9511     0.0108
A_3     C     0.1234     0.8982     0.9287
A_1     C     0.4596     0.6093     0.8324
A_2     C     0.709     0.0087     0.249
A_1     C     0.9468     0.3504     0.2931
A_2     C     0.6564     0.5073     0.5478
A_1     C     0.1122     0.4522     0.3932
A_1     C     0.7855     0.8052     0.851
A_3     C     0.1593     0.2845     0.987
A_0     C     0.9989     0.1654     0.4098
A_3     C     0.9696     0.4476     0.0807
A_1     C     0.828     0.9109     0.2263
A_0     C     0.6305     0.8141     0.0986
A_0     C     0.0834     0.4699     0.2966
A_2     C     0.0202     0.6943     0.3951
A_2     C     0.4044     0.1958     0.565
A_0     C     0.581     0.4555     0.5316
A_1     C     0.2811     0.8411     0.2184
A_3     C     0.975     0.1847     0.1353
A_3     C     0.7463     0.591     0.6654
A_1     C     0.139     0.6541     0.4911
A_3     C     0.3925     0.3802     0.9855
A_1     C     0.184     0.272     0.6613
A_2     C     0.5981     0.8459     0.5721
A_2     C     0.0224     0.6145     0.952
A_0     C     0.6871     0.2145     0.0974
A_2     C     0.9218     0.5353     0.9434
A_1     C     0.1283     0.6562     0.1037
A_1     C     0.2157     0.1819     0.9724
A_2     C     0.8145     0.1665     0.3386
A_2     C     0.8746     0.5509     0.5978
A_3     C     0.816     0.5028     0.5832
A_0     C     0.5015     0.9908     0.4967
A_0     C     0.4064     0.6944     0.9984
A_2     C     0.0829     0.6626     0.9039
A_1     C     0.3596     0.9681     0.4712
A_1     C     0.3155     0.5078     0.3526
A_0     C     0.9431     0.2439     0.06
A_2     C     0.329     0.736     0.8249
A_1     C     0.295     0.2484     0.9645
A_2     C     0.0904     0.6834     0.6962
A_2     C     0.5766     0.5595     0.1315
A_3     C     0.8199     0.341     0.5875
A_1     C     0.136     0.8348     0.9383
A_0     C     0.7794     0.3353     0.3704
A_0     C     0.7759     0.1993     0.5809
A_2     C     0.4471     0.101     0.246
A_0     C     0.7086     0.4154     0.9104
A_3     C     0.848     0.7826     0.4056
A_1     C     0.3465     0.8771     0.1183
A_3     C     0.6391     0.4785     0.8085
A_0     C     0.5     0.3388     0.4572
A_3     C     0.9934     0.5665     0.3507
A_0     C     0.4575     0.9394     0.1581
A_2     C     0.3104     0.0506     0.1097
A_3     C     0.6476     0.6156     0.0722
A_0     C     0.8809     0.5718     0.8107
A_3     C     0.4104     0.1291     0.4949
A_0     C     0.9232     0.9566     0.5331
A_0     C     0.8744     0.7374     0.5175
A_1     C     0.3275     0.6515     0.1671
A_3     C     0.5825     0.7337     0.5343
A_1     C     0.5229     0.271     0.0114
A_1     C     0.7041     0.9333     0.6428
A_2     C     0.0276     0.7549     0.3452
A_0     C     0.9466     0.3432     0.5482
A_1     C     0.7675     0.578     0.3674
A_0     C     0.4379     0.7039     0.3869
A_3     C     0.9598     0.5907     0.179
A_1     C     0.6847     0.2219     0.7558
A_3     C     0.9884     0.1984     0.209
A_3     C     0.2062     0.3338     0.6271
A_1     C     0.2825     0.2905     0.6943
A_3     C     0.0168     0.7919     0.7902
A_0     C     0.7264     0.1546     0.6205
A_3     C     0.0775     0.6541     0.2594
A_2     C     0.1403     0.1864     0.0578
A_2     C     0.0289     0.9768     0.3049
A_0     C     0.8427     0.4917     0.2277
A_2     C     0.0252     0.4409     0.3012
A_1     C     0.1775     0.3751     0.9333
A_2     C     0.804     0.1674     0.0057
A_0     C     0.1255     0.4439     0.5991
A_2     C     0.2282     0.5959     0.2983
A_0     C     0.5351     0.4912     0.3142
A_2     C     0.9558     0.0944     0.1758
A_2     C     0.5947     0.1216     0.2526
A_0     C     0.5138     0.4509     0.5308
A_2     C     0.4253     0.9727     0.5108
A_0     C     0.0318     0.6133     0.4705
A_3     C     0.1221     0.0638     0.5535
A_3     C     0.339     0.1639     0.9508
A_1     C     0.9691     0.9132     0.2755
A_1     C     0.1063     0.8424     0.948
A_0     C     0.3598     0.1009     0.7733
A_2     C     0.7055     0.0404     0.0913
A_2     C     0.052     0.6969     0.8313
A_2     C     0.3497     0.6394     0.225
A_3     C     0.4561     0.4557     0.3616
A_1     C     0.9819     0.1976     0.7597
A_3     C     0.2945     0.9157     0.0382
A_2     C     0.0804     0.7494     0.9247
A_2     C     0.2186     0.1316     0.9094
A_2     C     0.1443     0.5674     0.7202
A_2     C     0.2565     0.3967     0.3387
A_2     C     0.7641     0.5175     0.5585
A_2     C     0.1891     0.405     0.1077
A_3     C     0.4813     0.6041     0.6822
A_2     C     0.0707     0.3674     0.5486
A_0     C     0.1226     0.0072     0.1707
A_1     C     0.929     0.7714     0.5237
A_3     C     0.2719     0.9789     0.2182
A_1     C     0.602     0.2431     0.6831
A_3     C     0.8043     0.7519     0.4098
A_0     C     0.1092     0.1604     0.1693
A_1     C     0.3757     0.8855     0.1228
A_3     C     0.4721     0.9215     0.8746
A_1     C     0.9285     0.3746     0.0721
A_3     C     0.7984     0.0202     0.7933
A_2     C     0.2016     0.6598     0.2084
A_3     C     0.1648     0.2764     0.7448
A_0     C     0.0755     0.7852     0.8231
A_1     C     0.7121     0.5002     0.622
A_1     C     0.021     0.5428     0.638
A_0     C     0.4565     0.6748     0.8087
A_0     C     0.6073     0.8754     0.8597
A_1     C     0.9763     0.3182     0.3566
A_3     C     0.9757     0.0459     0.1803
A_2     C     0.5687     0.8592     0.4011
A_0     C     0.9526     0.9551     0.1601
A_3     C     0.9657     0.1641     0.3471
A_1     C     0.9957     0.6924     0.2513
A_2     C     0.3414     0.8666     0.8691
A_2     C     0.9075     0.2249     0.3645
A_3     C     0.7377     0.3805     0.2904
A_3     C     0.5043     0.584     0.2321
A_0     C     0.0911     0.2311     0.8821
A_2     C     0.9489     0.9245     0.3045
A_3     C     0.0587     0.7237     0.2447
A_0     C     0.1108     0.9031     0.1594
A_1     C     0.3157     0.9441     0.612
A_1     C     0.063     0.9278     0.2414
A_3     C     0.2229     0.0581     0.919
A_1     C     0.2249     0.108     0.5751
A_0     C     0.0759     0.8075     0.8119
A_0     C     0.2205     0.3412     0.0389
A_3     C     0.3019     0.1266     0.6552
A_3     C     0.8407     0.2024     0.159
A_1     C     0.4784     0.3063     0.3413
A_3     C     0.8365     0.0324     0.0315
A_1     C     0.0907     0.0255     0.702
A_2     C     0.6366     0.8259     0.266
A_1     C     0.018     0.6575     0.5914
A_0     C     0.1489     0.9829     0.2731
A_2     C     0.0113     0.2344     0.8206
A_3     C     0.8803     0.3788     0.8483
A_3     C     0.5748     0.2615     0.2913
A_3     C     0.9039     0.9706     0.6583
A_2     C     0.5778     0.3112     0.0949
A_1     C     0.752     0.1905     0.8671
A_1     C     0.2811     0.3399     0.4531
A_3     C     0.4905     0.5325     0.5649
A_0     C     0.6452     0.4524     0.1273
A_0     C     0.3519     0.641     0.7599
A_1     C     0.9027     0.7902     0.5062
A_0     C     0.2788     0.0721     0.7326
A_2     C     0.4287     0.3271     0.3689
A_3     C     0.6443     0.8471     0.9594
A_3     C     0.7204     0.0763     0.1479
A_1     C     0.9748     0.8143     0.1684
A_0     C     0.0367     0.9368     0.3071
A_1     C     0.6062     0.3255     0.1051
A_3     C     0.3827     0.686     0.4363
A_0     C     0.8244     0.4395     0.3134
A_1     C     0.0719     0.0711     0.0107
A_1     C     0.8123     0.9314     0.5785
A_1     C     0.8534     0.9885     0.0612
A_1     C     0.7101     0.708     0.0822
A_1     C     0.7522     0.4168     0.6601
A_0     C     0.7937     0.4531     0.2037
A_0     C     0.1037     0.472     0.9907
A_1     C     0.788     0.5888     0.9522
A_3     C     0.6749     0.1475     0.4513
A_1     C     0.1476     0.8362     0.9573
A_1     C     0.8244     0.883     0.384
A_1     C     0.795     0.1425     0.8979
A_3     C     0.0559     0.3754     0.3634
A_3     C     0.6606     0.3739     0.8237
A_3     C     0.2362     0.7849     0.7022
A_1     C     0.0077     0.3448     0.8439
A_1     C     0.9842     0.2086     0.5357
A_1     C     0.3455     0.1289     0.8039
A_0     C     0.1304     0.2462     0.5124
A_0     C     0.4965     0.7435     0.3103
A_3     C     0.7687     0.8855     0.53
A_1     C     0.2997     0.0172     0.7002
A_3     C     0.9341     0.5642     0.6369
A_3     C     0.0826     0.866     0.4437
A_1     C     0.0503     0.0963     0.703
A_0     C     0.1474     0.5209     0.2156
A_1     C     0.8767     0.007     0.3364
A_3     C     0.6551     0.8002     0.2753
A_2     C     0.8789     0.3335     0.722
A_0     C     0.0004     0.4835     0.9982
A_1     C     0.0236     0.1568     0.2178
A_2     C     0.3339     0.6662     0.5008
A_0     C     0.1219     0.7441     0.7156
A_1     C     0.6464     0.1337     0.0331
A_1     C     0.3034     0.5695     0.2895
A_0     C     0.1579     0.2687     0.4783
A_3     C     0.3757     0.323     0.7297
A_1     C     0.002     0.1619     0.5191
A_3     C     0.9204     0.8944     0.9724
A_0     C     0.8353     0.5394     0.9042
A_0     C     0.8996     0.1363     0.8584
A_3     C     0.7928     0.5542     0.2991
A_2     C     0.0665     0.334     0.7504
A_1     C     0.2594     0.4325     0.5756
A_2     C     0.5698     0.9022     0.9474
A_1     C     0.2516     0.7411     0.4457
A_1     C     0.062     0.492     0.3942
A_2     C     0.9359     0.843     0.7656
A_3     C     0.8407     0.9016     0.103
A_3     C     0.0464     0.7726     0.7888
A_1     C     0.4531     0.6111     0.5321
A_0     C     0.9934     0.95     0.7445
A_2     C     0.5534     0.8989     0.7431
A_3     C     0.2643     0.4134     0.7009
A_3     C     0.2975     0.2428     0.0959
A_1     C     0.7658     0.3042     0.6061
A_1     C     0.0325     0.5595     0.6706
A_1     C     0.4541     0.5613     0.5694
A_3     C     0.0878     0.6425     0.2847
A_1     C     0.3974     0.3712     0.9914
A_2     C     0.6115     0.8046     0.3595
A_0     C     0.6541     0.3804     0.7465
A_1     C     0.0292     0.6495     0.6037
A_0     C     0.8984     0.2937     0.1741
A_1     C     0.7088     0.9627     0.287
A_1     C     0.0692     0.258     0.9175
A_2     C     0.2023     0.1571     0.7881
A_1     C     0.7386     0.3164     0.2525
A_3     C     0.7106     0.7     0.7855
A_2     C     0.3595     0.5817     0.1105
A_2     C     0.834     0.5139     0.5128
A_3     C     0.6404     0.8302     0.7607
A_1     C     0.8397     0.7149     0.4563
A_1     C     0.8898     0.1413     0.6705
A_0     C     0.0185     0.4388     0.7091
A_3     C     0.6252     0.3135     0.229
A_1     C     0.9047     0.3049     0.1551
A_1     C     0.1412     0.1752     0.7972
A_2     C     0.6258     0.4816     0.3219
A_2     C     0.4356     0.6864     0.844
A_1     C     0.6452     0.6975     0.882
A_0     C     0.4385     0.3556     0.3959
A_3     C     0.8418     0.0338     0.3761
A_1     C     0.005     0.7183     0.0361
A_2     C     0.5792     0.7574     0.9854
A_3     C     0.9761     0.5048     0.6371
A_3     C     0.5108     0.9706     0.6412
A_2     C     0.5802     0.2022     0.9839
A_0     C     0.6512     0.6424     0.4372
A_3     C     0.1151     0.0997     0.2818
A_2     C     0.6928     0.0832     0.84
A_0     C     0.0344     0.2206     0.6565
A_1     C     0.8841     0.206     0.0703
A_1     C     0.0796     0.5407     0.8548
A_0     C     0.7991     0.0638     0.7609
A_0     C     0.5338     0.3895     0.6106
A_2     C     0.4084     0.9435     0.5557
A_2     C     0.669     0.0628     0.4715
A_3     C     0.1345     0.7899     0.9996
A_1     C     0.618     0.5311     0.2036
A_2     C     0.4734     0.6871     0.1645
A_3     C     0.4989     0.727     0.0879
A_1     C     0.3704     0.5307     0.5666
A_2     C     0.9511     0.1386     0.3276
A_2     C     0.5955     0.2193     0.5432
A_1     C     0.8064     0.369     0.6835
A_0     C     0.4786     0.9545     0.0874
A_2     C     0.7458     0.2838     0.0756
A_0     C     0.9147     0.357     0.7104
A_3     C     0.693     0.9725     0.4295
A_2     C     0.8129     0.5051     0.3097
A_3     C     0.0449     0.822     0.9011
A_0     C     0.9404     0.8526     0.4832
A_3     C     0.8813     0.9581     0.2274
A_1     C     0.8204     0.0646     0.8925
A_0     C     0.0515     0.4849     0.1986
A_0     C     0.2331     0.3574     0.3526
A_3     C     0.6257     0.6452     0.3123
A_2     C     0.8342     0.9041     0.4268
A_2     C     0.1708     0.6545     0.2766
A_2     C     0.4063     0.1492     0.6325
A_1     C     0.7852     0.4249     0.0166
A_0     C     0.1139     0.9011     0.037
A_1     C     0.6791     0.4567     0.4834
A_3     C     0.2963     0.5163     0.7801
A_3     C     0.5013     0.6084     0.1424
A_0     C     0.0439     0.3233     0.6846
A_0     C     0.262     0.5698     0.4894
A_0     C     0.725     0.849     0.8648
A_0     C     0.1354     0.5122     0.6051
A_1     C     0.7727     0.5373     0.0604
A_3     C     0.5928     0.8675     0.4708
A_1     C     0.9429     0.1606     0.8065
A_3     C     0.1191     0.8583     0.1769
A_3     C     0.9631     0.3862     0.7888
A_2     C     0.277     0.2722     0.0162
A_3     C     0.0189     0.2327     0.8185
A_1     C     0.5393     0.1897     0.8852
A_2     C     0.861     0.6739     0.7689
A_2     C     0.9389     0.1225     0.1132
A_0     C     0.7657     0.8131     0.2465
A_1     C     0.3695     0.7081     0.2725
A_0     C     0.4965     0.081     0.9233
A_1     C     0.3931     0.6401     0.9457
A_0     C     0.1778     0.4144     0.5219
A_1     C     0.325     0.6809     0.4834
A_1     C     0.1785     0.6297     0.1505
A_0     C     0.005     0.3413     0.234
A_0     C     0.2282     0.8064     0.7433
A_1     C     0.6652     0.8068     0.9246
A_2     C     0.7809     0.0491     0.8024
A_0     C     0.842     0.8611     0.2334
A_0     C     0.9383     0.0141     0.7814
A_2     C     0.8754     0.4662     0.9716
A_1     C     0.0712     0.343     0.4166
A_3     C     0.3465     0.0134     0.9447
A_0     C     0.8526     0.4562     0.5656
A_1     C     0.4903     0.6334     0.7378
A_1     C     0.2737     0.9779     0.896
A_1     C     0.7917     0.407     0.2825
A_2     C     0.5114     0.1001     0.5124
A_2     C     0.6288     0.4203     0.3892
A_3     C     0.5615     0.1208     0.456
A_0     C     0.1837     0.824     0.6881
A_3     C     0.3055     0.9166     0.4216
A_1     C     0.4989     0.2728     0.4873
A_1     C     0.4851     0.6549     0.9988
A_0     C     0.6852     0.5219     0.7236
A_3     C     0.9595     0.1679     0.7092
A_2     C     0.3353     0.9191     0.6891
A_2     C     0.4295     0.7434     0.4669
A_0     C     0.7564     0.0512     0.895
A_1     C     0.5973     0.7875     0.5493
A_1     C     0.7603     0.1793     0.8811
A_0     C     0.1385     0.0312     0.9629
A_2     C     0.6629     0.4297     0.431
A_0     C     0.2955     0.7084     0.5741
A_0     C     0.1554     0.5556     0.1107
A_1     C     0.905     0.7283     0.0517
A_3     C     0.7222     0.658     0.6496
A_0     C     0.6387     0.5683     0.2964
A_0     C     0.9698     0.4383     0.2971
A_0     C     0.2695     0.4437     0.7881
A_2     C     0.1642     0.1506     0.1269
A_2     C     0.4622     0.1466     0.6578
A_0     C     0.7023     0.7196     0.7654
A_2     C     0.7104     0.3958     0.6171
A_1     C     0.8622     0.9345     0.2019
A_3     C     0.9567     0.8553     0.1665
A_3     C     0.6739     0.229     0.8045
A_0     C     0.8213     0.1381     0.1786
A_3     C     0.9228     0.3037     0.611
A_2     C     0.6795     0.4199     0.0251
A_0     C     0.3221     0.1112     0.2839
A_2     C     0.1094     0.8428     0.9802
A_0     C     0.9401     0.8293     0.8685
A_3     C     0.0958     0.9447     0.7157
A_0     C     0.5487     0.5781     0.7298
A_2     C     0.7386     0.2159     0.5188
A_1     C     0.9828     0.6162     0.9521
A_0     C     0.2056     0.894     0.995
A_3     C     0.9356     0.379     0.358
A_1     C     0.8916     0.1465     0.8694
A_0     C     0.2985     0.7963     0.7206
A_3     C     0.7146     0.4722     0.2192
A_1     C     0.9635     0.671     0.7035
A_2     C     0.6776     0.0023     0.6093
A_3     C     0.0164     0.1134     0.6169
A_1     C     0.7979     0.5429     0.4326
A_3     C     0.2287     0.2157     0.7036
A_0     C     0.8593     0.6164     0.3905
A_3     C     0.6672     0.9374     0.4141
A_0     C     0.3439     0.6558     0.1963
A_1     C     0.6535     0.9887     0.5815
A_2     C     0.0399     0.7785     0.8557
A_0     C     0.2506     0.1327     0.8992
A_0     C     0.1499     0.8057     0.6144
A_3     C     0.1107     0.4009     0.1166
A_3     C     0.2571     0.0833     0.6137
A_1     C     0.3877     0.2236     0.4878
A_3     C     0.1696     0.674     0.3906
A_3     C     0.0124     0.7595     0.0944
A_0     C     0.1253     0.2359     0.8489
A_2     C     0.665     0.5588     0.7983
A_1     C     0.9996     0.6448     0.86
A_2     C     0.7226     0.4745     0.1012
A_1     C     0.8703     0.3167     0.9492
A_3     C     0.0048     0.5529     0.2695
A_2     C     0.7303     0.4555     0.3522
A_1     C     0.107     0.5081     0.462
A_3     C     0.6942     0.6475     0.7332
A_0     C     0.9813     0.311     0.0396
A_0     C     0.9341     0.3049     0.1358
A_0     C     0.4208     0.2465     0.9028
A_0     C     0.4872     0.5142     0.3375
A_0     C     0.748     0.7282     0.5567
A_1     C     0.6838     0.5203     0.7276
A_1     C     0.8019     0.5528     0.1486
A_2     C     0.8306     0.7512     0.4763
A_0     C     0.0459     0.7579     0.3661
A_3     C     0.7058     0.1123     0.1769
A_0     C     0.0201     0.0052     0.7526
A_3     C     0.1869     0.0378     0.2776
A_2     C     0.9326     0.8846     0.6862
A_1     C     0.9634     0.2461     0.0897
A_3     C     0.116     0.3312     0.0653
A_0     C     0.054     0.4481     0.4954
A_3     C     0.6566     0.934     0.9993
A_3     C     0.7703     0.6273     0.4659
A_3     C     0.1445     0.1514     0.8846
A_2     C     0.0271     0.4706     0.9085
A_0     C     0.675     0.6554     0.2364
A_2     C     0.2135     0.3573     0.7658
A_3     C     0.5214     0.3087     0.8102
A_1     C     0.6533     0.8143     0.9974
A_1     C     0.4793     0.8141     0.4155
A_2     C     0.399     0.3328     0.2626
A_3     C     0.5392     0.9817     0.4071
A_1     C     0.1474     0.8713     0.5762
A_2     C     0.0626     0.1994     0.6687
A_0     C     0.8261     0.4804     0.4184
A_3     C     0.4254     0.3578     0.2529
A_1     C     0.0212     0.7652     0.1116
A_0     C     0.1446     0.5854     0.216
A_3     C     0.4998     0.3953     0.7362
A_3     C     0.2318     0.9019     0.2274
A_2     C     0.0723     0.6756     0.0765
A_3     C     0.4542     0.402     0.0414
A_3     C     0.8635     0.2159     0.4335
A_1     C     0.3803     0.3767     0.8167
A_0     C     0.4875     0.5567     0.9647
A_3     C     0.0422     0.1677     0.597
A_2     C     0.7126     0.5311     0.8248
A_0     C     0.3817     0.7335     0.2248
A_2     C     0.0668     0.2095     0.2301
A_3     C     0.4048     0.7568     0.7773
A_3     C     0.8278     0.4434     0.0567
A_3     C     0.3501     0.077     0.0966
A_2     C     0.1136     0.7947     0.6969
A_2     C     0.4126     0.7068     0.5943
A_1     C     0.4702     0.6883     0.2395
A_2     C     0.8375     0.3118     0.5105
A_2     C     0.9729     0.9859     0.3637
A_1     C     0.4564     0.0905     0.5924
A_3     C     0.6677     0.2009     0.4631
A_3     C     0.3056     0.9819     0.9177
A_0     C     0.0366     0.9157     0.0767
A_2     C     0.4546     0.2331     0.5152
A_2     C     0.4592     0.7345     0.9047
A_1     C     0.6581     0.2314     0.7332
A_3     C     0.7842     0.2526     0.3166
A_3     C     0.5172     0.266     0.7583
A_3     C     0.674     0.806     0.0391
A_2     C     0.2247     0.7544     0.8805
A_0     C     0.712     0.6062     0.6466
A_3     C     0.8358     0.9173     0.3656
A_1     C     0.9721     0.0573     0.4473
A_3     C     0.7347     0.0092     0.8947
A_0     C     0.979     0.8986     0.2175
A_0     C     0.243     0.5779     0.3032
A_0     C     0.4174     0.2757     0.4663
A_1     C     0.8205     0.8965     0.6687
A_1     C     0.5973     0.8842     0.0804
A_2     C     0.8967     0.9875     0.6691
A_0     C     0.7588     0.156     0.4409
A_2     C     0.2713     0.738     0.1388
A_1     C     0.1102     0.1957     0.007
A_2     C     0.0088     0.4685     0.1715
A_1     C     0.3037     0.3483     0.7539
A_3     C     0.8177     0.8     0.3296
A_3     C     0.4345     0.7711     0.2984
A_2     C     0.0695     0.4987     0.7202
A_3     C     0.9029     0.9037     0.7615
A_0     C     0.0799     0.6095     0.2257
A_0     C     0.2878     0.8716     0.0843
A_2     C     0.1712     0.947     0.2803
A_3     C     0.9758     0.1481     0.3851
A_1     C     0.7151     0.1701     0.092
A_2     C     0.5721     0.9232     0.7985
A_1     C     0.3215     0.242     0.3437
A_1     C     0.7907     0.9915     0.6051
A_2     C     0.6051     0.9445     0.3749
A_2     C     0.8963     0.8178     0.5132
A_2     C     0.0706     0.2315     0.1669
A_1     C     0.8059     0.8273     0.2672
A_3     C     0.6541     0.0416     0.0992
A_1     C     0.1212     0.3664     0.8523
A_1     C     0.3848     0.924     0.5009
A_2     C     0.2034     0.8018     0.0282
A_3     C     0.4989     0.1991     0.9713
A_0     C     0.1145     0.4673     0.2167
A_2     C     0.4343     0.515     0.5317
A_2     C     0.2212     0.9594     0.99
A_2     C     0.8446     0.9274     0.3416
A_1     C     0.2994     0.1331     0.283
A_2     C     0.9558     0.6834     0.4354
A_0     C     0.5704     0.7499     0.1581
A_2     C     0.5355     0.7834     0.0536
A_0     C     0.7441     0.0108     0.2638
A_3     C     0.4752     0.4878     0.5092
A_3     C     0.2062     0.371     0.9621
A_3     C     0.1038     0.5151     0.7533
A_2     C     0.2127     0.7133     0.5103
A_0     C     0.4355     0.2304     0.5254
A_1     C     0.7659     0.0808     0.6848
A_1     C     0.9594     0.181     0.9156
A_2     C     0.4459     0.9199     0.2486
A_3     C     0.9279     0.225     0.6516
A_3     C     0.701     0.5198     0.3025
A_1     C     0.8484     0.6409     0.9625
A_2     C     0.4044     0.5304     0.7282
A_1     C     0.5168     0.1324     0.1099
A_1     C     0.0396     0.1193     0.1416
A_0     C     0.2047     0.0174     0.7423
A_2     C     0.9686     0.4873     0.282
A_1     C     0.7063     0.4774     0.5564
A_3     C     0.9521     0.2657     0.8344
A_2     C     0.9256     0.4919     0.0463
A_1     C     0.0306     0.011     0.1866
A_2     C     0.1252     0.0533     0.2921
A_1     C     0.5713     0.1201     0.4703
A_3     C     0.1952     0.1767     0.127
A_3     C     0.9072     0.8025     0.2205
A_1     C     0.4797     0.7262     0.7038
A_0     C     0.0827     0.2152     0.6341
A_3     C     0.2176     0.3797     0.0565
A_0     C     0.6236     0.8417     0.3292
A_3     C     0.1186     0.7039     0.6218
A_2     C     0.7086     0.264     0.5039
A_3     C     0.0305     0.5296     0.1911
A_2     C     0.1898     0.6183     0.3166
A_3     C     0.2501     0.1288     0.3646
A_0     C     0.8523     0.0629     0.5982
A_2     C     0.9127     0.1734     0.6319
A_0     C     0.3295     0.9752     0.6695
A_3     C     0.1133     0.8218     0.1516
A_1     C     0.7367     0.4211     0.4296
A_3     C     0.3888     0.0478     0.5637
A_2     C     0.8269     0.852     0.9086
A_0     C     0.4097     0.4306     0.6475
A_1     C     0.482     0.522     0.3178
A_1     C     0.0788     0.2742     0.2572
A_0     C     0.3832     0.8426     0.3003
A_1     C     0.8768     0.8961     0.1211
A_3     C     0.5355     0.8789     0.3951
A_0     C     0.3313     0.02     0.485
A_1     C     0.7867     0.9703     0.8162
A_0     C     0.8288     0.3331     0.265
A_3     C     0.9841     0.1253     0.4194
A_2     C     0.8942     0.8222     0.9302
A_1     C     0.3185     0.479     0.5381
A_3     C     0.0273     0.7535     0.7297
A_1     C     0.5249     0.8243     0.9943
A_2     C     0.5935     0.5586     0.0801
A_0     C     0.8054     0.263     0.3688
A_2     C     0.6972     0.6428     0.94
A_3     C     0.1467     0.8495     0.6072
A_3     C     0.4293     0.9265     0.2847
A_3     C     0.8525     0.0318     0.4263
A_0     C     0.2544     0.5374     0.1576
A_3     C     0.013     0.1955     0.6827
A_3     C     0.7935     0.8615     0.4928
A_2     C     0.5062     0.7443     0.6648
A_1     C     0.0943     0.1254     0.0111
A_0     C     0.1539     0.8553     0.665
A_0     C     0.6583     0.9253     0.6292
A_2     C     0.482     0.5358     0.1466
A_3     C     0.2109     0.2448     0.7239
A_0     C     0.7024     0.5952     0.8638
A_2     C     0.2541     0.6889     0.5349
A_1     C     0.2246     0.1761     0.1792
A_1     C     0.8499     0.5499     0.6274
A_1     C     0.9157     0.9453     0.6913
A_0     C     0.468     0.9985     0.4259
A_2     C     0.1437     0.2004     0.8992
A_2     C     0.3767     0.9541     0.883
A_3     C     0.8623     0.0377     0.6618
A_2     C     0.0649     0.9929     0.2029
A_0     C     0.9898     0.3067     0.2237
A_3     C     0.5228     0.1886     0.6448
A_1     C     0.4477     0.5632     0.6949
A_1     C     0.1973     0.4821     0.9049
A_0     C     0.7818     0.2747     0.3614
A_1     C     0.549     0.0416     0.8237
A_3     C     0.1135     0.2059     0.1936
A_2     C     0.4702     0.1694     0.7279
A_0     C     0.2949     0.2219     0.3904
A_3     C     0.3531     0.0088     0.6083
A_3     C     0.653     0.4971     0.7544
A_3     C     0.1681     0.9942     0.8079
A_0     C     0.3574     0.1597     0.5292
A_2     C     0.5274     0.3315     0.2432
A_1     C     0.8741     0.8212     0.2542
A_3     C     0.7962     0.0157     0.2136
A_0     C     0.5532     0.0945     0.6752
A_2     C     0.9492     0.6149     0.4326
A_2     C     0.8764     0.7693     0.4815
A_0     C     0.1752     0.1882     0.3451
A_3     C     0.0603     0.7087     0.6969
A_2     C     0.2818     0.7057     0.2544
A_0     C     0.169     0.6097     0.1548
A_2     C     0.4634     0.325     0.1868
A_0     C     0.7368     0.408     0.4831
A_2     C     0.4819     0.8589     0.2054
A_0     C     0.5543     0.2262     0.3655
A_1     C     0.208     0.2552     0.2015
A_2     C     0.6773     0.5878     0.2531
A_0     C     0.9136     0.773     0.578
A_2     C     0.5043     0.1721     0.3741
A_3     C     0.2989     0.101     0.0675
A_1     C     0.2843     0.7937     0.2736
A_0     C     0.662     0.024     0.3552
A_0     C     0.8174     0.6997     0.3031
A_2     C     0.4833     0.4523     0.8985
A_2     C     0.4545     0.3491     0.9773
A_0     C     0.6376     0.4841     0.7369
A_2     C     0.8653     0.5104     0.3028
A_3     C     0.5599     0.6891     0.17
A_1     C     0.5879     0.2298     0.4897
A_2     C     0.6177     0.1312     0.3295
A_2     C     0.9413     0.1206     0.9274
A_2     C     0.6349     0.1197     0.4979
A_3     C     0.646     0.0158     0.561
A_1     C     0.8229     0.6348     0.3103
A_2     C     0.561     0.5448     0.9867
A_1     C     0.9571     0.806     0.0436
A_0     C     0.5047     0.4511     0.4307
A_2     C     0.2719     0.5119     0.5229
A_1     C     0.4263     0.688     0.4107
A_1     C     0.9533     0.6045     0.0921
A_3     C     0.1439     0.218     0.5335
A_1     C     0.024     0.4057     0.594
A_0     C     0.8335     0.2797     0.6992
A_2     C     0.705     0.4745     0.8185
A_1     C     0.6768     0.6829     0.9961
A_2     C     0.4299     0.2584     0.1735
A_3     C     0.1604     0.1516     0.1708
A_0     C     0.0304     0.1956     0.7205
A_3     C     0.8828     0.5564     0.1198
A_0     C     0.3854     0.4776     0.9167
A_2     C     0.2522     0.1653     0.5812
A_2     C     0.7678     0.0264     0.573
A_1     C     0.0225     0.3387     0.3278
A_3     C     0.8024     0.4514     0.8957
A_2     C     0.8013     0.3527     0.0831
A_1     C     0.6923     0.307     0.099
A_3     C     0.493     0.0307     0.4413
A_0     C     0.4434     0.7572     0.9999
A_3     C     0.377     0.7722     0.1379
A_2     C     0.3284     0.3783     0.7312
A_0     C     0.9366     0.2734     0.2933
A_1     C     0.3325     0.411     0.2171
A_2     C     0.723     0.6911     0.0935
A_3     C     0.0629     0.0556     0.6612
A_1     C     0.9504     0.0242     0.6733
A_3     C     0.3303     0.7947     0.0113
A_2     C     0.9131     0.8343     0.7048
A_0     C     0.7278     0.1768     0.0756
A_3     C     0.6843     0.5038     0.6735
A_0     C     0.1288     0.8214     0.8626
A_1     C     0.8005     0.5093     0.5592
A_0     C     0.7225     0.5067     0.1494
A_3     C     0.1972     0.651     0.6701
A_0     C     0.8866     0.8218     0.0795
A_2     C     0.4768     0.7645     0.3302
A_2     C     0.018     0.6532     0.3111
A_3     C     0.6198     0.431     0.0329
A_1     C     0.5377     0.8052     0.2866
A_3     C     0.361     0.9745     0.2682
A_0     C     0.3846     0.7178     0.1238
A_1     C     0.3823     0.301     0.2599
A_0     C     0.4     0.0081     0.7864
A_1     C     0.1038     0.8322     0.3126
A_3     C     0.4287     0.3708     0.5078
A_3     C     0.2137     0.4675     0.8576
A_3     C     0.0327     0.9683     0.9089
A_2     C     0.6074     0.2879     0.337
A_2     C     0.229     0.3995     0.8577
A_1     C     0.913     0.9517     0.5001
A_3     C     0.0845     0.0428     0.7706
A_1     C     0.4296     0.3306     0.237
A_3     C     0.0249     0.6145     0.3639
A_3     C     0.8969     0.4562     0.6586
A_2     C     0.0362     0.6217     0.2835
A_1     C     0.4694     0.2159     0.092
A_3     C     0.9495     0.9794     0.3177
A_0     C     0.9798     0.634     0.6383
A_1     C     0.7969     0.3929     0.939
A_3     C     0.675     0.242     0.8995
A_1     C     0.143     0.137     0.3819
A_3     C     0.2029     0.5866     0.4603
A_2     C     0.1722     0.0763     0.3078
A_2     C     0.0586     0.3615     0.486
A_2     C     0.4189     0.6903     0.377
A_3     C     0.5016     0.5447     0.6998
A_2     C     0.9946     0.3994     0.8699
A_1     C     0.2392     0.8363     0.453
A_2     C     0.8345     0.7917     0.5067
A_1     C     0.1603     0.6462     0.9312
A_2     C     0.183     0.6594     0.7061
A_3     C     0.5638     0.2888     0.0909
A_1     C     0.5215     0.2916     0.5664
A_2     C     0.4203     0.6273     0.6713
A_2     C     0.8872     0.1834     0.7322
A_1     C     0.1583     0.1388     0.6953
A_2     C     0.6422     0.7698     0.2614
A_0     C     0.0981     0.6743     0.7882
A_2     C     0.9493     0.4403     0.0482
A_0     C     0.9259     0.6348     0.0621
A_0     C     0.5728     0.6112     0.7242
A_3     C     0.2137     0.6993     0.5425
A_0     C     0.6302     0.9069     0.735
A_0     C     0.1692     0.376     0.8235
A_2     C     0.2832     0.1938     0.1609
A_3     C     0.1387     0.2879     0.2876
A_3     C     0.1358     0.5054     0.0597
A_3     C     0.7106     0.771     0.3872
A_2     C     0.8454     0.4994     0.7776
A_1     C     0.1652     0.4782     0.2277
A_2     C     0.5921     0.6417     0.5257
A_1     C     0.5151     0.5805     0.5749
A_0     C     0.0419     0.5493     0.3561
A_1     C     0.8174     0.017     0.4724
A_0     C     0.865     0.2617     0.7276
A_0     C     0.878     0.4353     0.6442
A_3     C     0.6319     0.0863     0.1976
A_1     C     0.1942     0.7695     0.8012
A_3     C     0.5906     0.6827     0.2431
A_1     C     0.3991     0.0249     0.9626
A_2     C     0.642     0.9985     0.6375
A_3     C     0.4904     0.9762     0.5676
A_0     C     0.9104     0.8032     0.4317
A_2     C     0.7885     0.4506     0.3241
A_2     C     0.8296     0.7137     0.1477
A_0     C     0.2572     0.5244     0.4006
A_0     C     0.6484     0.2146     0.5433
A_1     C     0.8136     0.1414     0.7391
A_0     C     0.6748     0.8729     0.152
A_2     C     0.6819     0.2321     0.6345
A_1     C     0.0937     0.9255     0.9211
A_0     C     0.1556     0.3065     0.2255
A_0     C     0.8455     0.4858     0.6279
A_0     C     0.5903     0.5903     0.1472
A_2     C     0.239     0.8193     0.9639
A_0     C     0.2621     0.919     0.4035
A_0     C     0.909     0.163     0.4894
A_1     C     0.6782     0.8231     0.1779
A_2     C     0.5976     0.2648     0.8855
A_1     C     0.253     0.6349     0.6965
A_3     C     0.4613     0.2545     0.1073
A_1     C     0.57     0.6331     0.4706
A_1     C     0.7209     0.6729     0.9218
A_1     C     0.1148     0.4245     0.3334
A_1     C     0.8031     0.9845     0.7859
A_2     C     0.3728     0.4431     0.3705
A_2     C     0.3739     0.8041     0.9061
A_1     C     0.1012     0.8646     0.522
A_1     C     0.4514     0.8262     0.4037
A_2     C     0.7389     0.4346     0.922
A_1     C     0.7974     0.1914     0.4845
A_2     C     0.6606     0.614     0.5888
A_0     C     0.7386     0.2172     0.8022
A_0     C     0.8894     0.6949     0.1606
A_3     C     0.5774     0.3213     0.0293
A_1     C     0.4842     0.8965     0.2736
A_0     C     0.4297     0.2929     0.8816
A_0     C     0.726     0.1097     0.1931
A_0     C     0.416     0.4788     0.3584
A_0     C     0.6684     0.0108     0.4316
A_0     C     0.1793     0.4693     0.0408
A_2     C     0.2325     0.2084     0.4508
A_3     C     0.7583     0.4071     0.3726
A_0     C     0.3246     0.0274     0.8386
A_2     C     0.1014     0.7741     0.183
A_0     C     0.6023     0.065     0.1555
A_3     C     0.4767     0.4308     0.2446
A_0     C     0.8513     0.4625     0.1487
A_1     C     0.758     0.2758     0.3594
A_2     C     0.5278     0.0716     0.171
A_0     C     0.3357     0.0976     0.4092
A_1     C     0.5833     0.4915     0.5061
A_3     C     0.9625     0.0195     0.5881
A_0     C     0.8029     0.693     0.5431
A_1     C     0.8686     0.2758     0.073
A_0     C     0.8831     0.1718     0.7426
A_2     C     0.6342     0.916     0.4994
A_3     C     0.2249     0.642     0.8556
A_3     C     0.4044     0.5733     0.8088
A_1     C     0.0829     0.5433     0.6729
A_0     C     0.4207     0.6574     0.3943
A_0     C     0.5556     0.833     0.4077
A_2     C     0.7129     0.8134     0.7746
A_1     C     0.2966     0.1402     0.0501
A_3     C     0.9313     0.3864     0.2253
A_2     C     0.0137     0.2735     0.5844
A_2     C     0.8165     0.7433     0.1648
A_2     C     0.4636     0.0749     0.4018
A_1     C     0.9445     0.0292     0.7654
A_2     C     0.7991     0.4859     0.9419
A_0     C     0.8597     0.9124     0.4459
A_2     C     0.2028     0.5924     0.0147
A_3     C     0.9308     0.8272     0.238
A_3     C     0.8382     0.6303     0.9717
A_2     C     0.202     0.3984     0.8487
A_2     C     0.053     0.6045     0.1644
A_0     C     0.168     0.5756     0.9486
A_2     C     0.3065     0.7791     0.8627
A_0     C     0.6092     0.9353     0.5446
A_1     C     0.3363     0.9971     0.1588
A_2     C     0.1627     0.9025     0.9217
A_2     C     0.1693     0.3268     0.2165
A_3     C     0.3819     0.4171     0.1742
A_3     C     0.2962     0.5393     0.3848
A_1     C     0.0322     0.7199     0.4617
A_1     C     0.359     0.3822     0.6087
A_1     C     0.9195     0.8726     0.4284
A_3     C     0.2989     0.53     0.8007
A_1     C     0.2102     0.9492     0.5643
A_1     C     0.4275     0.1292     0.7891
A_2     C     0.1197     0.2319     0.7239
A_1     C     0.6877     0.9354     0.0057
A_3     C     0.7995     0.7391     0.7002
A_3     C     0.0908     0.0321     0.8159
A_3     C     0.4622     0.9194     0.0359
A_1     C     0.1865     0.9192     0.4667
A_1     C     0.5357     0.2984     0.3892
A_2     C     0.5659     0.1272     0.9525
A_0     C     0.7865     0.8635     0.9203
A_1     C     0.4388     0.1921     0.9932
A_3     C     0.5771     0.5387     0.8148
A_1     C     0.9097     0.3765     0.4586
A_2     C     0.0543     0.5678     0.1853
A_0     C     0.7618     0.5115     0.7228
A_1     C     0.4498     0.2223     0.9423
A_0     C     0.4535     0.1418     0.0319
A_2     C     0.0893     0.761     0.2606
A_1     C     0.0782     0.4683     0.9046
A_1     C     0.7031     0.8269     0.3635
A_1     C     0.0145     0.368     0.0845
A_0     C     0.313     0.4856     0.7185
A_3     C     0.9406     0.0233     0.8081
A_3     C     0.8551     0.9651     0.2468
A_1     C     0.1602     0.9554     0.8885
A_3     C     0.7914     0.7817     0.6976
A_1     C     0.1303     0.7955     0.0343
A_2     C     0.2865     0.1135     0.3278
A_2     C     0.5135     0.8826     0.2359
A_1     C     0.1941     0.1383     0.5987
A_3     C     0.6532     0.0038     0.6471
A_2     C     0.6984     0.4654     0.8447
A_0     C     0.4138     0.2563     0.5843
A_0     C     0.3035     0.7345     0.7334
A_1     C     0.2377     0.8439     0.9898
A_2     C     0.0515     0.4109     0.0115
A_1     C     0.303     0.3228     0.7483
A_2     C     0.5113     0.7375     0.9741
A_3     C     0.6036     0.1728     0.4285
A_1     C     0.2948     0.4009     0.1722
A_0     C     0.0807     0.7897     0.0565
A_0     C     0.6234     0.0356     0.2332
A_2     C     0.3779     0.8598     0.8117
A_3     C     0.7556     0.9703     0.5441
A_1     C     0.457     0.5167     0.3593
A_3     C     0.4261     0.0223     0.213
A_2     C     0.7605     0.2397     0.8831
A_0     C     0.7574     0.6195     0.7695
A_3     C     0.5732     0.5852     0.9713
A_1     C     0.7109     0.3297     0.1706
A_0     C     0.999     0.7869     0.2056
A_3     C     0.7948     0.1069     0.0547
A_2     C     0.4553     0.9829     0.0867
A_0     C     0.3648     0.3191     0.7806
A_2     C     0.5847     0.5596     0.9214
A_3     C     0.6771     0.4369     0.0942
A_0     C     0.2725     0.2469     0.2881
A_3     C     0.7632     0.275     0.883
A_1     C     0.1603     0.3413     0.9
A_2     C     0.6804     0.3122     0.6132
A_0     C     0.1512     0.4057     0.5423
A_1     C     0.9264     0.4617     0.5948
A_2     C     0.9326     0.3259     0.258
A_3     C     0.9122     0.9829     0.3541
A_1     C     0.6694     0.3446     0.9975
A_1     C     0.8455     0.2761     0.9239
A_3     C     0.6524     0.0881     0.2265
A_3     C     0.6667     0.2465     0.7538
A_1     C     0.3304     0.9655     0.8714
A_3     C     0.6784     0.7775     0.9036
A_1     C     0.4853     0.4426     0.0604
A_2     C     0.8478     0.9002     0.8297
A_0     C     0.7068     0.9287     0.7989
A_3     C     0.2581     0.9404     0.179
A_1     C     0.312     0.9358     0.3426
A_2     C     0.3814     0.5693     0.201
A_1     C     0.8404     0.2637     0.6871
A_2     C     0.6561     0.1244     0.3188
A_2     C     0.9746     0.7041     0.1839
A_3     C     0.4192     0.8408     0.0788
A_1     C     0.2584     0.3035     0.0294
A_3     C     0.9885     0.2715     0.4292
A_1     C     0.2894     0.4425     0.308
A_3     C     0.5976     0.895     0.8646
A_0     C     0.3774     0.7525     0.708
A_0     C     0.1734     0.9712     0.6895
A_1     C     0.8001     0.659     0.1909
A_0     C     0.4627     0.6232     0.3309
A_3     C     0.9172     0.9407     0.039
A_0     C     0.6383     0.4011     0.7328
A_3     C     0.5537     0.2     0.319
A_0     C     0.9017     0.0417     0.5142
A_2     C     0.8216     0.8691     0.5759
A_3     C     0.2087     0.8445     0.6492
A_3     C     0.3237     0.9736     0.8361
A_1     C     0.8428     0.11     0.2306
A_2     C     0.5347     0.8404     0.2563
A_3     C     0.8507     0.1595     0.8396
A_0     C     0.9891     0.2816     0.2718
A_2     C     0.5307     0.2263     0.9424
A_1     C     0.3447     0.5893     0.7813
A_3     C     0.6019     0.6282     0.0278
A_2     C     0.8833     0.7748     0.4265
A_2     C     0.591     0.5248     0.5876
A_1     C     0.3931     0.013     0.3766
A_0     C     0.1179     0.7969     0.069
A_3     C     0.4747     0.4791     0.0322
A_2     C     0.3797     0.0551     0.012
A_1     C     0.7671     0.1077     0.2407
A_3     C     0.1595     0.3247     0.6443
A_1     C     0.5328     0.956     0.5601
A_1     C     0.5752     0.3518     0.7659
A_3     C     0.2361     0.0793     0.2234
A_1     C     0.5169     0.4176     0.1855
A_3     C     0.3252     0.016     0.8934
A_3     C     0.0019     0.5814     0.1607
A_3     C     0.9113     0.222     0.9946
A_1     C     0.8711     0.0513     0.216
A_1     C     0.7464     0.5429     0.4333
A_1     C     0.538     0.1761     0.7299
A_2     C     0.4443     0.8903     0.5077
A_2     C     0.5441     0.3421     0.1829
A_2     C     0.3527     0.671     0.6825
A_0     C     0.8891     0.0951     0.3217
A_1     C     0.5745     0.0051     0.4381
A_3     C     0.4033     0.6641     0.9926
A_2     C     0.0141     0.6139     0.3222
A_3     C     0.777     0.0059     0.2348
A_2     C     0.6404     0.5235     0.8412
A_2     C     0.2388     0.9907     0.8764
A_3     C     0.1435     0.8487     0.9851
A_2     C     0.6879     0.7791     0.8273
A_3     C     0.7072     0.7906     0.7553
A_3     C     0.367     0.4889     0.6277
A_2     C     0.14     0.5267     0.0715
A_3     C     0.2493     0.7518     0.9059
A_0     C     0.2158     0.0218     0.386
A_0     C     0.0643     0.8671     0.2317
A_1     C     0.1962     0.1313     0.653
A_1     C     0.8616     0.705     0.9891
A_1     C     0.0903     0.7778     0.9776
A_0     C     0.656     0.1881     0.3001
A_0     C     0.1471     0.9867     0.9875
A_1     C     0.3713     0.6617     0.9357
A_3     C     0.771     0.073     0.8088
A_2     C     0.1098     0.5326     0.5449
A_1     C     0.4422     0.4335     0.7221
A_0     C     0.979     0.3605     0.4699
A_2     C     0.8239     0.6068     0.3097
A_1     C     0.3577     0.2699     0.2924
A_0     C     0.6244     0.2281     0.3634
A_2     C     0.1421     0.2442     0.7207
A_2     C     0.1056     0.9014     0.3562
A_2     C     0.2784     0.6159     0.813
A_0     C     0.4172     0.3351     0.292
A_3     C     0.1615     0.9761     0.2306
A_2     C     0.4045     0.5906     0.9613
A_3     C     0.7237     0.8253     0.6898
A_1     C     0.9567     0.4603     0.0224
A_0     C     0.902     0.5674     0.5856
A_3     C     0.1598     0.7851     0.6134
A_0     C     0.8565     0.334     0.1684
A_0     C     0.414     0.8299     0.4282
A_3     C     0.329     0.2831     0.33
A_1     C     0.3247     0.7133     0.7554
A_1     C     0.885     0.863     0.1838
A_3     C     0.0705     0.6719     0.4442
A_0     C     0.7798     0.5379     0.824
A_3     C     0.0128     0.2542     0.1737
A_1     C     0.9867     0.0846     0.1824
A_0     C     0.3654     0.6349     0.9026
A_1     C     0.1946     0.9032     0.0874
A_2     C     0.1706     0.2224     0.9865
A_3     C     0.8642     0.7112     0.5267
A_2     C     0.9727     0.7304     0.9541
A_1     C     0.8648     0.3945     0.8562
A_3     C     0.8278     0.4021     0.0528
A_0     C     0.6955     0.4475     0.3115
A_1     C     0.2472     0.0489     0.4666
A_3     C     0.2449     0.0809     0.7234
A_0     C     0.5538     0.0271     0.0484
A_3     C     0.0674     0.5847     0.2626
A_1     C     0.9248     0.446     0.8748
A_0     C     0.8581     0.6845     0.0674
A_3     C     0.2764     0.8676     0.3166
A_2     C     0.4609     0.2937     0.7095
A_2     C     0.6352     0.2338     0.401
A_0     C     0.5577     0.1798     0.1528
A_0     C     0.1813     0.0513     0.8212
A_1     C     0.1674     0.2915     0.4916
A_3     C     0.7592     0.9371     0.6417
A_2     C     0.0234     0.41     0.0286
A_2     C     0.3993     0.2424     0.2269
A_2     C     0.473     0.4096     0.497
A_2     C     0.1184     0.7785     0.4378
A_1     C     0.7677     0.8338     0.1326
A_1     C     0.284     0.0616     0.4938
A_0     C     0.2688     0.3821     0.1562
A_1     C     0.0476     0.6196     0.6722
A_0     C     0.3092     0.3966     0.6526
A_3     C     0.3611     0.4093     0.0192
A_2     C     0.4735     0.4768     0.6867
A_3     C     0.1648     0.6422     0.785
A_0     C     0.5106     0.1007     0.4389
A_3     C     0.0706     0.8799     0.2305
A_0     C     0.0904     0.6261     0.0612
A_0     C     0.9012     0.5335     0.8234
A_3     C     0.2179     0.322     0.3914
A_1     C     0.8041     0.0494     0.6849
A_3     C     0.7466     0.0933     0.7939
A_0     C     0.5423     0.4705     0.0757
A_2     C     0.493     0.0112     0.5165
A_1     C     0.2539     0.4992     0.8981
A_2     C     0.0888     0.7951     0.944
A_1     C     0.635     0.8945     0.9681
A_0     C     0.9303     0.5658     0.0461
A_3     C     0.9316     0.2377     0.1302
A_3     C     0.0713     0.1672     0.0088
A_2     C     0.9541     0.5201     0.9599
A_2     C     0.2218     0.6967     0.086
A_2     C     0.8896     0.3244     0.5615
A_3     C     0.2875     0.5633     0.0621
A_3     C     0.5088     0.4412     0.2898
A_2     C     0.8627     0.3424     0.4604
A_1     C     0.7776     0.515     0.4846
A_0     C     0.0649     0.3045     0.7831
A_2     C     0.6078     0.2235     0.3103
A_3     C     0.9017     0.9947     0.5209
A_1     C     0.4912     0.0662     0.1581
A_3     C     0.0966     0.5097     0.5256
A_1     C     0.9764     0.0099     0.8456
A_3     C     0.8829     0.9722     0.9088
A_3     C     0.8055     0.8548     0.7937
A_0     C     0.0129     0.7051     0.0504
A_1     C     0.0338     0.1187     0.0734
A_3     C     0.1093     0.2637     0.8338
A_1     C     0.5937     0.6934     0.3026
A_0     C     0.2291     0.2159     0.4617
A_2     C     0.9623     0.3911     0.2085
A_1     C     0.8053     0.795     0.068
A_2     C     0.4898     0.1274     0.7907
A_1     C     0.5559     0.6727     0.6882
A_2     C     0.6115     0.9965     0.4443
A_0     C     0.4937     0.5081     0.4974
A_1     C     0.0372     0.0678     0.8878
A_0     C     0.3422     0.964     0.388
A_1     C     0.0381     0.4949     0.1109
A_0     C     0.815     0.9286     0.8073
A_0     C     0.5333     0.2282     0.5345
A_1     C     0.2878     0.4989     0.2997
A_0     C     0.3205     0.3151     0.9098
A_0     C     0.4798     0.8438     0.1163
A_1     C     0.9787     0.5989     0.8309
A_1     C     0.5088     0.6474     0.9434
A_1     C     0.2042     0.2051     0.776
A_0     C     0.1977     0.8399     0.6837
A_1     C     0.3378     0.5679     0.0841
A_2     C     0.4144     0.41     0.1202
A_3     C     0.6737     0.956     0.6661
A_3     C     0.5671     0.1698     0.7597
A_1     C     0.6312     0.283     0.1131
A_3     C     0.7374     0.5201     0.1687
A_1     C     0.1896     0.4302     0.813
A_0     C     0.0869     0.6575     0.8638
A_1     C     0.7314     0.4319     0.2741
A_0     C     0.0125     0.8     0.6876
A_2     C     0.6202     0.0687     0.6931
A_1     C     0.4556     0.668     0.1367
A_1     C     0.3651     0.9818     0.9361
A_0     C     0.8328     0.0889     0.8101
A_0     C     0.3776     0.0378     0.4637
A_0     C     0.3553     0.7964     0.2141
A_0     C     0.4319     0.34     0.8171
A_2     C     0.0826     0.995     0.0529
A_2     C     0.0034     0.0445     0.7342
A_1     C     0.8945     0.6615     0.7052
A_0     C     0.682     0.8341     0.845
A_2     C     0.9575     0.9169     0.7476
A_2     C     0.5015     0.9203     0.2786
A_3     C     0.7225     0.6613     0.3209
A_1     C     0.6025     0.8228     0.7082
A_3     C     0.2177     0.3276     0.4052
A_2     C     0.7473     0.714     0.7805
A_3     C     0.529     0.7071     0.3312
A_0     C     0.4118     0.7218     0.8589
A_0     C     0.4178     0.7505     0.3231
A_0     C     0.8812     0.7542     0.6775
A_0     C     0.1061     0.7181     0.2247
A_0     C     0.238     0.8405     0.9242
A_2     C     0.8064     0.3054     0.1152
A_0     C     0.2226     0.5333     0.1967
A_1     C     0.818     0.799     0.3049
A_0     C     0.5764     0.155     0.8629
A_1     C     0.0274     0.904     0.7788
A_0     C     0.2522     0.3041     0.6495
A_1     C     0.607     0.272     0.5933
A_2     C     0.1681     0.9586     0.3867
A_2     C     0.1005     0.9026     0.0777
A_1     C     0.1043     0.2949     0.9098
A_1     C     0.3845     0.6686     0.3915
A_0     C     0.7925     0.0197     0.4858
A_1     C     0.1682     0.6283     0.3553
A_1     C     0.4766     0.45     0.7848
A_2     C     0.4938     0.0424     0.3796
A_0     C     0.888     0.5419     0.7551
A_1     C     0.4292     0.8715     0.7118
A_3     C     0.6296     0.1825     0.6959
A_3     C     0.2467     0.6645     0.3553
A_0     C     0.1525     0.9481     0.0073
A_0     C     0.426     0.8454     0.8356
A_0     C     0.4312     0.4982     0.584
A_1     C     0.377     0.6032     0.5507
A_2     C     0.557     0.2694     0.2767
A_1     C     0.5904     0.6898     0.8475
A_3     C     0.6254     0.7136     0.0138
A_0     C     0.7886     0.8695     0.9895
A_1     C     0.3207     0.3213     0.9185
A_3     C     0.9489     0.9851     0.8861
A_3     C     0.2458     0.6798     0.7002
A_2     C     0.6847     0.1209     0.6973
A_3     C     0.4249     0.357     0.2432
A_1     C     0.3279     0.0154     0.5412
A_1     C     0.7544     0.4265     0.2604
A_2     C     0.008     0.7048     0.7594
A_1     C     0.9252     0.5794     0.644
A_0     C     0.7545     0.8555     0.6941
A_3     C     0.6683     0.4793     0.6315
A_2     C     0.8598     0.2309     0.2139
A_2     C     0.384     0.9204     0.3829
A_3     C     0.8944     0.8298     0.995
A_1     C     0.0127     0.5019     0.8311
A_1     C     0.7952     0.9128     0.6031
A_2     C     0.7702     0.2486     0.7143
A_2     C     0.0415     0.974     0.7165
A_0     C     0.3783     0.3718     0.9596
A_1     C     0.9285     0.1451     0.2191
A_2     C     0.4268     0.8022     0.1083
A_2     C     0.9693     0.6131     0.1632
A_3     C     0.3362     0.8357     0.4834
A_3     C     0.3315     0.9986     0.8296
A_3     C     0.0984     0.691     0.4171
A_1     C     0.4557     0.5425     0.5986
A_0     C     0.947     0.0245     0.048
A_2     C     0.8783     0.5761     0.6803
A_1     C     0.2105     0.5699     0.4515
A_3     C     0.5793     0.1885     0.5489
A_0     C     0.2784     0.3365     0.3124
A_2     C     0.3756     0.1809     0.0403
A_2     C     0.5928     0.7031     0.0338
A_3     C     0.5151     0.3391     0.088
A_0     C     0.6835     0.2607     0.063
A_0     C     0.4033     0.5174     0.9974
A_1     C     0.629     0.5751     0.5252
A_1     C     0.66     0.497     0.946
A_2     C     0.3289     0.4631     0.9082
A_2     C     0.7497     0.9264     0.5065
A_3     C     0.646     0.4295     0.1178
A_3     C     0.3277     0.1478     0.9947
A_1     C     0.9559     0.8565     0.8436
A_2     C     0.3929     0.2153     0.4383
A_3     C     0.1229     0.3097     0.992
A_3     C     0.5108     0.2578     0.4261
A_2     C     0.2408     0.425     0.1844
A_1     C     0.8096     0.0764     0.0278
A_2     C     0.3259     0.6241     0.5236
A_1     C     0.0302     0.3227     0.3531
A_1     C     0.9973     0.0872     0.5716
A_1     C     0.7087     0.1411     0.1563
A_1     C     0.5498     0.6986     0.9301
A_1     C     0.6572     0.679     0.8491
A_1     C     0.2273     0.168     0.4584
A_2     C     0.0454     0.2825     0.6182
A_1     C     0.3837     0.5858     0.2457
A_1     C     0.5246     0.3138     0.4905
A_2     C     0.9608     0.152     0.3523
A_1     C     0.2346     0.3054     0.1352
A_1     C     0.7441     0.0053     0.4884
A_0     C     0.452     0.0805     0.7443
A_3     C     0.4029     0.6181     0.6044
A_0     C     0.5916     0.7372     0.0706
A_0     C     0.3944     0.0505     0.1989
A_1     C     0.5023     0.0635     0.968
A_3     C     0.9009     0.4791     0.0102
A_0     C     0.1085     0.5729     0.4857
A_3     C     0.1845     0.1165     0.715
A_3     C     0.0975     0.7996     0.3234
A_3     C     0.6105     0.8823     0.2219
A_0     C     0.2     0.8459     0.5255
A_2     C     0.7558     0.22     0.3446
A_0     C     0.1497     0.6137     0.2822
A_3     C     0.488     0.9961     0.2108
A_0     C     0.1692     0.1903     0.2167
A_0     C     0.001     0.9903     0.1323
A_1     C     0.573     0.2126     0.1335
A_2     C     0.587     0.0265     0.0868
A_3     C     0.1887     0.9677     0.0836
A_1     C     0.8484     0.291     0.9891
A_3     C     0.7531     0.2571     0.1044
A_0     C     0.0573     0.7075     0.377
A_3     C     0.4564     0.9218     0.6617
A_1     C     0.5951     0.1431     0.5639
A_0     C     0.2671     0.5025     0.476
A_1     C     0.4946     0.9298     0.5434
A_1     C     0.4483     0.5697     0.0129
A_2     C     0.5703     0.9314     0.7723
A_3     C     0.9038     0.6992     0.0939
A_3     C     0.3246     0.6587     0.2285
A_3     C     0.491     0.7701     0.5015
A_2     C     0.5025     0.7327     0.7042
A_2     C     0.0858     0.2485     0.4764
A_1     C     0.2663     0.618     0.0157
A_0     C     0.9086     0.4472     0.4778
A_2     C     0.5003     0.3594     0.8618
A_2     C     0.2723     0.8285     0.2978
A_1     C     0.7781     0.168     0.3891
A_1     C     0.3997     0.4725     0.3483
A_2     C     0.4664     0.3461     0.5277
A_2     C     0.2238     0.3184     0.358
A_0     C     0.2718     0.707     0.7003
A_1     C     0.4268     0.7492     0.4102
A_3     C     0.798     0.848     0.2609
A_0     C     0.0452     0.867     0.1444
A_0     C     0.9293     0.8866     0.0411
A_3     C     0.2004     0.8081     0.6888
A_0     C     0.8762     0.3366     0.8295
A_3     C     0.8045     0.3577     0.0371
A_1     C     0.7542     0.2804     0.8292
A_3     C     0.0945     0.0388     0.6318
A_2     C     0.4131     0.2935     0.283
A_3     C     0.0216     0.9529     0.2373
A_3     C     0.5692     0.4423     0.1203
A_3     C     0.8284     0.7791     0.1404
A_1     C     0.0177     0.6428     0.5576
A_3     C     0.6893     0.5343     0.5663
A_0     C     0.9034     0.9088     0.9276
A_2     C     0.9533     0.5024     0.8921
A_2     C     0.1602     0.5144     0.3564
A_1     C     0.0353     0.5464     0.0576
A_0     C     0.2538     0.5894     0.5499
A_0     C     0.2273     0.6326     0.6505
A_1     C     0.3265     0.3579     0.9362
A_0     C     0.5065     0.6306     0.6024
A_2     C     0.8111     0.3242     0.7365
A_1     C     0.6338     0.4863     0.6155
A_1     C     0.9606     0.0822     0.9598
A_2     C     0.3855     0.8758     0.0328
A_0     C     0.3859     0.7333     0.096
A_3     C     0.7594     0.5539     0.429
A_3     C     0.1886     0.7708     0.4426
A_2     C     0.8385     0.2767     0.6763
A_0     C     0.7009     0.2107     0.9203
A_0     C     0.9986     0.9158     0.0167
A_1     C     0.7877     0.0395     0.0725
A_2     C     0.0216     0.2018     0.5031
A_1     C     0.4114     0.756     0.2168
A_3     C     0.3152     0.4533     0.8469
A_0     C     0.0695     0.6606     0.2326
A_3     C     0.9867     0.4753     0.2345
A_1     C     0.8669     0.5284     0.6895
A_3     C     0.5608     0.8819     0.4699
A_2     C     0.0613     0.4995     0.4376
A_1     C     0.9767     0.4352     0.1925
A_1     C     0.2407     0.061     0.3179
A_1     C     0.8832     0.5667     0.0878
A_3     C     0.481     0.7667     0.1491
A_3     C     0.4432     0.943     0.291
A_2     C     0.0019     0.7111     0.0228
A_0     C     0.4489     0.5766     0.3226
A_2     C     0.2199     0.8343     0.5151
A_3     C     0.027     0.8354     0.4279
A_2     C     0.0382     0.3842     0.8266
A_2     C     0.6954     0.7668     0.0112
A_2     C     0.4314     0.8166     0.3578
A_1     C     0.1807     0.6563     0.1162
