MAT-19

loop_
_symmetry_equiv_pos_as_xyz
  x,y,z
_cell_length_a          17.467
_cell_length_b          38.2535
_cell_length_c          39.6317
_cell_angle_alpha       90.0000
_cell_angle_beta        90.0000
_cell_angle_gamma       90.0000
loop_
_atom_site_label
_atom_site_type_symbol
_atom_site_fract_x
_atom_site_fract_y
_atom_site_fract_z
A_1     C     0.1468     0.6269     0.1464
A_2     C     0.3915     0.4886     0.0926
A_0     C     0.9363     0.718     0.3945
A_1     C     0.7635     0.6792     0.66
A_0     C     0.6373     0.5185     0.0919
A_2     C     0.6668     0.3681     0.4324
A_0     C     0.285     0.6993     0.4234
A_1     C     0.6184     0.4259     0.2454
A_3     C     0.8897     0.4024     0.5629
A_1     C     0.1899     0.3705     0.0124
A_1     C     0.6111     0.5949     0.1224
A_1     C     0.1031     0.414     0.3934
A_3     C     0.7149     0.5522     0.899
A_2     C     0.6522     0.1891     0.669
A_2     C     0.4184     0.2014     0.1141
A_3     C     0.5217     0.4365     0.3604
A_3     C     0.5138     0.2827     0.4558
A_3     C     0.4078     0.6152     0.561
A_1     C     0.4155     0.5081     0.7359
A_3     C     0.6686     0.9166     0.4904
A_2     C     0.4049     0.9812     0.2841
A_3     C     0.966     0.1327     0.814
A_1     C     0.4323     0.0844     0.2372
A_0     C     0.1015     0.0463     0.3677
A_3     C     0.5799     0.2626     0.4209
A_1     C     0.0898     0.2497     0.807
A_2     C     0.3339     0.3162     0.6968
A_2     C     0.9436     0.3666     0.7018
A_1     C     0.9436     0.7544     0.7654
A_0     C     0.7531     0.3216     0.2515
A_3     C     0.7936     0.9068     0.3199
A_1     C     0.5052     0.9226     0.2547
A_0     C     0.0808     0.3573     0.7481
A_1     C     0.0172     0.078     0.5666
A_1     C     0.1317     0.1371     0.2605
A_1     C     0.2506     0.8503     0.1192
A_1     C     0.4627     0.1141     0.0769
A_3     C     0.1987     0.8053     0.8668
A_0     C     0.7666     0.7609     0.2959
A_0     C     0.114     0.1628     0.6741
A_0     C     0.8899     0.8967     0.9566
A_1     C     0.9736     0.575     0.8152
A_1     C     0.2586     0.2979     0.6885
A_1     C     0.3286     0.4231     0.9992
A_3     C     0.3364     0.617     0.8249
A_2     C     0.3667     0.3562     0.0747
A_2     C     0.0735     0.5301     0.8579
A_1     C     0.5627     0.2657     0.2232
A_1     C     0.8561     0.0642     0.381
A_0     C     0.4834     0.8211     0.2111
A_1     C     0.0797     0.1824     0.4249
A_2     C     0.638     0.8109     0.7029
A_3     C     0.9378     0.4827     0.7286
A_2     C     0.1474     0.3752     0.3526
A_1     C     0.3032     0.6933     0.3673
A_2     C     0.7204     0.5312     0.4778
A_0     C     0.1605     0.3988     0.2026
A_0     C     0.0064     0.8151     0.9743
A_0     C     0.7067     0.8569     0.8897
A_1     C     0.3319     0.9654     0.7813
A_0     C     0.476     0.0528     0.8762
A_0     C     0.8242     0.6116     0.9758
A_2     C     0.6511     0.5276     0.4356
A_3     C     0.5373     0.6966     0.7496
A_0     C     0.2083     0.1019     0.1217
A_1     C     0.1542     0.7211     0.2807
A_0     C     0.588     0.4595     0.8434
A_0     C     0.8202     0.971     0.5823
A_0     C     0.546     0.0147     0.3398
A_3     C     0.4143     0.6032     0.1783
A_3     C     0.5672     0.572     0.0511
A_0     C     0.5872     0.1227     0.9758
A_1     C     0.5867     0.9115     0.2832
A_0     C     0.7634     0.3218     0.9001
A_3     C     0.7735     0.7083     0.6353
A_2     C     0.1895     0.0072     0.9566
A_0     C     0.5234     0.5034     0.7399
A_1     C     0.6136     0.7066     0.2998
A_3     C     0.2737     0.2442     0.5992
A_0     C     0.9692     0.5302     0.8471
A_3     C     0.9199     0.8067     0.5782
A_1     C     0.7393     0.3296     0.0561
A_1     C     0.3486     0.7444     0.3859
A_3     C     0.9611     0.7037     0.0488
A_0     C     0.4463     0.5266     0.4093
A_0     C     0.0365     0.0004     0.738
A_3     C     0.8731     0.9804     0.5774
A_1     C     0.1595     0.9288     0.4323
A_3     C     0.1097     0.9138     0.9139
A_0     C     0.2566     0.2928     0.8308
A_3     C     0.0507     0.5966     0.3733
A_3     C     0.5705     0.6951     0.6855
A_3     C     0.8829     0.1565     0.1268
A_3     C     0.5965     0.5273     0.2641
A_3     C     0.4444     0.3609     0.2145
A_2     C     0.9154     0.5043     0.6893
A_3     C     0.4735     0.7511     0.7608
A_0     C     0.6226     0.0586     0.4528
A_1     C     0.7427     0.9545     0.8836
A_2     C     0.1895     0.9197     0.5363
A_0     C     0.9283     0.7323     0.7148
A_1     C     0.5064     0.3841     0.2839
A_3     C     0.5418     0.1621     0.8295
A_3     C     0.6847     0.2431     0.9944
A_1     C     0.2676     0.5815     0.455
A_1     C     0.8762     0.7091     0.9637
A_3     C     0.2029     0.0863     0.6474
A_0     C     0.4761     0.9766     0.2587
A_0     C     0.6861     0.5144     0.9629
A_1     C     0.9187     0.2528     0.4246
A_2     C     0.0158     0.2016     0.1646
A_2     C     0.9927     0.6373     0.1138
A_0     C     0.3038     0.2736     0.5525
A_3     C     0.9065     0.1501     0.3404
A_1     C     0.3254     0.8531     0.1277
A_3     C     0.0838     0.1478     0.9852
A_3     C     0.9146     0.3144     0.8957
A_1     C     0.0608     0.5754     0.0798
A_0     C     0.9905     0.3163     0.952
A_0     C     0.6457     0.9323     0.3051
A_0     C     0.4504     0.1866     0.9915
A_3     C     0.9265     0.3244     0.0322
A_3     C     0.5005     0.1148     0.2201
A_1     C     0.9483     0.3256     0.0114
A_1     C     0.4512     0.3409     0.0482
A_3     C     0.1641     0.3037     0.0177
A_0     C     0.8191     0.166     0.243
A_0     C     0.8     0.4849     0.2833
A_0     C     0.4081     0.9855     0.2544
A_1     C     0.1918     0.1637     0.2499
A_3     C     0.2413     0.4418     0.6911
A_3     C     0.289     0.0901     0.066
A_0     C     0.7833     0.6218     0.4285
A_0     C     0.5037     0.9925     0.1442
A_0     C     0.3907     0.5872     0.4563
A_2     C     0.4472     0.9778     0.1632
A_2     C     0.1453     0.6258     0.996
A_2     C     0.5715     0.502     0.7934
A_1     C     0.7526     0.3332     0.166
A_0     C     0.5287     0.3389     0.0825
A_3     C     0.2918     0.0353     0.4949
A_2     C     0.8981     0.015     0.1453
A_1     C     0.1605     0.4862     0.549
A_1     C     0.5741     0.3226     0.6287
A_0     C     0.084     0.6967     0.3626
A_1     C     0.064     0.1213     0.643
A_1     C     0.9832     0.5317     0.4279
A_3     C     0.6676     0.0811     0.9613
A_1     C     0.9398     0.8649     0.2916
A_1     C     0.6096     0.9845     0.9739
A_3     C     0.5236     0.2782     0.0016
A_0     C     0.1271     0.1377     0.488
A_0     C     0.6132     0.1155     0.912
A_0     C     0.4585     0.8564     0.2233
A_1     C     0.0098     0.1357     0.6297
A_1     C     0.8911     0.3633     0.4242
A_1     C     0.9827     0.5713     0.4123
A_3     C     0.9539     0.5721     0.9977
A_2     C     0.7188     0.9142     0.303
A_1     C     0.1582     0.827     0.2997
A_2     C     0.8     0.3206     0.8617
A_2     C     0.3965     0.8424     0.0161
A_1     C     0.5038     0.8911     0.8807
A_1     C     0.1802     0.9546     0.6723
A_2     C     0.9118     0.6057     0.952
A_2     C     0.6767     0.8221     0.1563
A_0     C     0.4117     0.2211     0.5265
A_0     C     0.4618     0.8225     0.0512
A_0     C     0.593     0.0158     0.31
A_2     C     0.9688     0.4626     0.5498
A_3     C     0.4644     0.6123     0.3822
A_0     C     0.1591     0.789     0.9197
A_1     C     0.9322     0.018     0.7096
A_3     C     0.4571     0.041     0.8066
A_2     C     0.6934     0.9647     0.8004
A_1     C     0.8787     0.7655     0.311
A_2     C     0.3487     0.7325     0.1093
A_1     C     0.0122     0.2139     0.6424
A_0     C     0.5312     0.7497     0.768
A_2     C     0.5248     0.1469     0.6995
A_1     C     0.5408     0.2423     0.9878
A_1     C     0.1666     0.9784     0.1549
A_0     C     0.5536     0.9306     0.5426
A_1     C     0.1315     0.8491     0.8947
A_1     C     0.0397     0.7397     0.9123
A_1     C     0.4926     0.0063     0.8829
A_0     C     0.1296     0.0636     0.2643
A_1     C     0.4402     0.0465     0.6937
A_2     C     0.2259     0.6042     0.6171
A_2     C     0.9591     0.1541     0.6117
A_3     C     0.8532     0.2132     0.6473
A_0     C     0.9782     0.8779     0.925
A_3     C     0.5539     0.3332     0.0264
A_3     C     0.6047     0.9052     0.5226
A_2     C     0.2459     0.5098     0.5548
A_2     C     0.4132     0.0218     0.2986
A_2     C     0.7059     0.792     0.2546
A_3     C     0.8205     0.6422     0.8003
A_3     C     0.742     0.4232     0.9412
A_1     C     0.6641     0.1683     0.3641
A_0     C     0.3431     0.7478     0.2764
A_1     C     0.1988     0.1275     0.3262
A_3     C     0.2411     0.0885     0.9635
A_3     C     0.9229     0.2545     0.711
A_0     C     0.5793     0.9986     0.9731
A_2     C     0.6392     0.0298     0.3879
A_3     C     0.1039     0.4361     0.6693
A_3     C     0.194     0.6909     0.71
A_0     C     0.7561     0.3193     0.197
A_1     C     0.5166     0.1762     0.2729
A_3     C     0.9054     0.9892     0.6938
A_1     C     0.989     0.373     0.9258
A_2     C     0.0474     0.0467     0.8023
A_3     C     0.1819     0.6416     0.1501
A_2     C     0.0553     0.3732     0.1006
A_2     C     0.9662     0.0828     0.2729
A_3     C     0.2381     0.0122     0.8609
A_0     C     0.9758     0.3137     0.8414
A_1     C     0.3332     0.3516     0.6017
A_2     C     0.153     0.4625     0.6326
A_0     C     0.7141     0.3473     0.5586
A_1     C     0.4789     0.5808     0.2098
A_3     C     0.7828     0.3448     0.5897
A_2     C     0.7223     0.3203     0.8813
A_3     C     0.3934     0.3369     0.5226
A_1     C     0.27     0.8515     0.2017
A_2     C     0.6564     0.8556     0.8572
A_0     C     0.1354     0.2826     0.613
A_2     C     0.6255     0.1171     0.1546
A_2     C     0.2104     0.3138     0.2497
A_2     C     0.829     0.0294     0.5907
A_0     C     0.8484     0.7875     0.4968
A_3     C     0.9224     0.1113     0.1488
A_1     C     0.7695     0.2724     0.0799
A_2     C     0.6405     0.5283     0.2527
A_3     C     0.1483     0.5494     0.2239
A_3     C     0.3387     0.872     0.9593
A_3     C     0.0418     0.7093     0.0774
A_1     C     0.0718     0.328     0.0782
A_2     C     0.9457     0.9396     0.6189
A_3     C     0.1648     0.5177     0.0249
A_1     C     0.6089     0.9442     0.3695
A_1     C     0.6306     0.7702     0.9663
A_0     C     0.4113     0.9125     0.0529
A_0     C     0.4548     0.2963     0.239
A_1     C     0.2785     0.9597     0.5405
A_0     C     0.8927     0.2417     0.4639
A_1     C     0.8478     0.2182     0.2226
A_1     C     0.2659     0.8235     0.2433
A_2     C     0.4555     0.7546     0.1305
A_2     C     0.7617     0.4789     0.9255
A_2     C     0.3627     0.6833     0.8092
A_0     C     0.3427     0.4843     0.2931
A_1     C     0.2736     0.5617     0.4589
A_3     C     0.0939     0.7404     0.8581
A_0     C     0.5411     0.6471     0.0754
A_3     C     0.2688     0.6277     0.9376
A_1     C     0.6802     0.5077     0.1309
A_3     C     0.8983     0.1964     0.5185
A_2     C     0.4541     0.4284     0.9058
A_1     C     0.5814     0.5506     0.295
A_0     C     0.1713     0.5108     0.868
A_3     C     0.6892     0.5971     0.6118
A_3     C     0.2452     0.9931     0.8149
A_1     C     0.7909     0.2705     0.991
A_3     C     0.9874     0.9687     0.71
A_3     C     0.2666     0.0899     0.3503
A_1     C     0.0541     0.9419     0.3119
A_3     C     0.3424     0.3305     0.6299
A_3     C     0.6976     0.1153     0.5272
A_2     C     0.3554     0.7614     0.3742
A_0     C     0.4639     0.3913     0.7933
A_2     C     0.4951     0.648     0.7777
A_0     C     0.7213     0.2975     0.5388
A_2     C     0.2617     0.5019     0.1163
A_3     C     0.0552     0.0054     0.9053
A_3     C     0.9978     0.8821     0.1201
A_3     C     0.7678     0.6767     0.934
A_0     C     0.3258     0.4832     0.4428
A_0     C     0.529     0.8251     0.465
A_0     C     0.6625     0.4702     0.9223
A_0     C     0.9746     0.8803     0.7017
A_0     C     0.6052     0.9919     0.1842
A_2     C     0.1739     0.6187     0.1433
A_0     C     0.5587     0.5318     0.7984
A_3     C     0.1695     0.6517     0.2445
A_1     C     0.1797     0.4904     0.6034
A_2     C     0.5035     0.0106     0.288
A_1     C     0.0399     0.8464     0.8073
A_3     C     0.8091     0.2013     0.079
A_2     C     0.6819     0.1122     0.7947
A_3     C     0.4872     0.1724     0.3266
A_2     C     0.754     0.0341     0.8639
A_3     C     0.9989     0.0256     0.3525
A_1     C     0.9659     0.3472     0.5707
A_2     C     0.6503     0.0831     0.9648
A_0     C     0.7068     0.5807     0.8103
A_2     C     0.9071     0.8537     0.3701
A_0     C     0.8197     0.4433     0.7108
A_1     C     0.5801     0.3012     0.9866
A_3     C     0.2266     0.4288     0.3537
A_1     C     0.5635     0.0877     0.9036
A_1     C     0.7074     0.412     0.6149
A_2     C     0.1782     0.6044     0.1376
A_0     C     0.1931     0.2049     0.8546
A_2     C     0.5098     0.2556     0.0522
A_0     C     0.1241     0.6486     0.779
A_3     C     0.8939     0.8089     0.965
A_3     C     0.8344     0.7585     0.6279
A_3     C     0.529     0.5757     0.6745
A_3     C     0.6815     0.5267     0.4582
A_3     C     0.9426     0.362     0.4806
A_2     C     0.7416     0.3293     0.3619
A_0     C     0.1543     0.8996     0.7714
A_2     C     0.0328     0.266     0.7527
A_2     C     0.7578     0.688     0.2227
A_2     C     0.6834     0.517     0.4314
A_1     C     0.3319     0.6113     0.3669
A_1     C     0.8004     0.6102     0.1985
A_2     C     0.3492     0.0908     0.9077
A_1     C     0.2253     0.6044     0.324
A_2     C     0.9312     0.9066     0.4286
A_0     C     0.9708     0.7305     0.9751
A_3     C     0.0715     0.7573     0.8286
A_0     C     0.2867     0.0665     0.1846
A_2     C     0.2736     0.2415     0.8588
A_1     C     0.6535     0.8262     0.4172
A_2     C     0.7927     0.4088     0.2215
A_1     C     0.4816     0.0331     0.6089
A_3     C     0.8432     0.2801     0.8989
A_2     C     0.325     0.9651     0.5768
A_3     C     0.5798     0.4736     0.7612
A_2     C     0.0831     0.4019     0.3396
A_1     C     0.4643     0.157     0.3418
A_3     C     0.2351     0.5434     0.8084
A_1     C     0.4949     0.8074     0.3975
A_1     C     0.1371     0.2543     0.2006
A_2     C     0.4686     0.0539     0.934
A_2     C     0.2414     0.4905     0.3439
A_3     C     0.7795     0.4826     0.7377
A_0     C     0.1216     0.0461     0.5465
A_1     C     0.2362     0.3895     0.7206
A_2     C     0.2682     0.1127     0.5412
A_3     C     0.9325     0.1259     0.2103
A_1     C     0.6796     0.7265     0.0917
A_0     C     0.6372     0.705     0.5345
A_1     C     0.3374     0.6855     0.2693
A_3     C     0.65     0.9044     0.8558
A_2     C     0.6831     0.0083     0.117
A_0     C     0.1273     0.0722     0.7732
A_0     C     0.1156     0.6841     0.0799
A_0     C     0.1044     0.9468     0.3292
A_2     C     0.4953     0.1241     0.2604
A_1     C     0.4921     0.5116     0.1897
A_3     C     0.5139     0.1805     0.0844
A_3     C     0.3167     0.1483     0.262
A_0     C     0.4578     0.466     0.9506
A_3     C     0.9262     0.5678     0.057
A_2     C     0.6341     0.0298     0.5139
A_1     C     0.1973     0.9032     0.4549
A_3     C     0.7927     0.1083     0.4148
A_3     C     0.6764     0.1435     0.0334
A_2     C     0.6223     0.4895     0.272
A_0     C     0.8044     0.4757     0.0383
A_2     C     0.9352     0.0811     0.5909
A_0     C     0.6472     0.6043     0.0839
A_3     C     0.8453     0.037     0.9942
A_1     C     0.6506     0.4408     0.4329
A_3     C     0.9286     0.0558     0.8979
A_1     C     0.3876     0.7706     0.9014
A_0     C     0.0468     0.6876     0.2632
A_2     C     0.1647     0.4936     0.4708
A_3     C     0.2342     0.6018     0.5872
A_0     C     0.7951     0.8322     0.6955
A_1     C     0.9309     0.0606     0.4215
A_2     C     0.6324     0.2417     0.8406
A_0     C     0.0151     0.1662     0.011
A_1     C     0.1384     0.6323     0.5599
A_3     C     0.7913     0.7459     0.0678
A_3     C     0.3811     0.4325     0.1297
A_2     C     0.9579     0.4334     0.8017
A_1     C     0.6554     0.2769     0.8636
A_1     C     0.8773     0.0261     0.7303
A_3     C     0.995     0.125     0.0199
A_0     C     0.8964     0.583     0.648
A_3     C     0.4189     0.1634     0.9033
A_3     C     0.1126     0.3351     0.2082
A_2     C     0.068     0.3346     0.6014
A_1     C     0.8417     0.2972     0.2487
A_0     C     0.4747     0.8356     0.0296
A_1     C     0.4149     0.2135     0.9664
A_2     C     0.0337     0.3195     0.349
A_1     C     0.6756     0.1202     0.372
A_3     C     0.1671     0.2526     0.6215
A_1     C     0.4479     0.62     0.853
A_3     C     0.0112     0.9497     0.045
A_2     C     0.3879     0.1124     0.1382
A_1     C     0.9588     0.974     0.4447
A_1     C     0.8518     0.3626     0.1597
A_0     C     0.9208     0.1456     0.326
A_1     C     0.9434     0.0387     0.9154
A_0     C     0.1257     0.3109     0.9347
A_0     C     0.4979     0.0315     0.4138
A_0     C     0.9924     0.4247     0.2479
A_0     C     0.243     0.704     0.5239
A_1     C     0.3855     0.5268     0.2957
A_3     C     0.7015     0.5411     0.0353
A_3     C     0.0144     0.1997     0.7283
A_2     C     0.2912     0.1394     0.7324
A_3     C     0.2162     0.4618     0.9823
A_1     C     0.0325     0.8684     0.767
A_3     C     0.9665     0.9456     0.5678
A_1     C     0.9959     0.773     0.1948
A_0     C     0.6976     0.2645     0.4549
A_1     C     0.1655     0.717     0.3358
A_1     C     0.5579     0.0242     0.9737
A_1     C     0.7161     0.221     0.96
A_1     C     0.3195     0.5837     0.5523
A_0     C     0.1608     0.6519     0.0348
A_0     C     0.3726     0.9519     0.6087
A_2     C     0.5321     0.7858     0.8055
A_0     C     0.9159     0.6651     0.9547
A_2     C     0.248     0.2381     0.0859
A_0     C     0.5574     0.2249     0.2004
A_3     C     0.7357     0.4261     0.7603
A_2     C     0.9269     0.872     0.6019
A_3     C     0.5489     0.9404     0.6789
A_0     C     0.2128     0.5076     0.161
A_2     C     0.6061     0.0084     0.7404
A_3     C     0.2888     0.284     0.1196
A_3     C     0.4448     0.0617     0.8496
A_0     C     0.9575     0.6267     0.6149
A_2     C     0.4697     0.4844     0.7136
A_3     C     0.2224     0.2518     0.7256
A_2     C     0.0854     0.4612     0.3983
A_3     C     0.4422     0.9123     0.8528
A_1     C     0.2125     0.5775     0.2913
A_0     C     0.0333     0.1136     0.4232
A_3     C     0.0078     0.4578     0.7016
A_3     C     0.4796     0.7446     0.9187
A_3     C     0.3642     0.2829     0.0579
A_1     C     0.2215     0.3188     0.2483
A_0     C     0.6978     0.4927     0.1892
A_3     C     0.4269     0.2911     0.9405
A_2     C     0.5628     0.6679     0.7065
A_2     C     0.8604     0.3011     0.4895
A_0     C     0.3166     0.7909     0.778
A_0     C     0.9737     0.5076     0.3212
A_3     C     0.7596     0.1216     0.0239
A_2     C     0.7607     0.2386     0.1963
A_3     C     0.0301     0.9149     0.4255
A_0     C     0.9856     0.6017     0.4731
A_0     C     0.0688     0.9086     0.5604
A_2     C     0.6951     0.8914     0.5528
A_2     C     0.5257     0.1849     0.1895
A_2     C     0.0573     0.6644     0.2882
A_2     C     0.2881     0.5523     0.2527
A_3     C     0.9814     0.5081     0.6622
A_0     C     0.4327     0.2147     0.0389
A_3     C     0.8876     0.3077     0.2748
A_0     C     0.0862     0.0748     0.1368
A_0     C     0.2245     0.8566     0.0645
A_0     C     0.7704     0.5803     0.4238
A_2     C     0.2728     0.9888     0.2695
A_2     C     0.9748     0.5796     0.2551
A_2     C     0.2964     0.6363     0.7124
A_3     C     0.8072     0.917     0.0599
A_3     C     0.2999     0.0982     0.0435
A_0     C     0.2724     0.8705     0.3981
A_0     C     0.8317     0.6699     0.7529
A_3     C     0.3125     0.6514     0.4853
A_3     C     0.2116     0.9487     0.7947
A_0     C     0.0839     0.936     0.3515
A_1     C     0.8128     0.0718     0.0503
A_0     C     0.8452     0.5278     0.4853
A_3     C     0.9462     0.6479     0.1524
A_2     C     0.9627     0.9573     0.3008
A_2     C     0.0429     0.4367     0.748
A_1     C     0.9341     0.2527     0.2109
A_3     C     0.6313     0.2953     0.5712
A_2     C     0.8705     0.5628     0.422
A_2     C     0.6787     0.0001     0.3449
A_1     C     0.708     0.8369     0.9839
A_3     C     0.1835     0.2194     0.905
A_1     C     0.9739     0.0127     0.4056
A_3     C     0.6249     0.7626     0.0078
A_2     C     0.7535     0.746     0.0618
A_1     C     0.8846     0.149     0.1948
A_3     C     0.92     0.297     0.1554
A_3     C     0.5657     0.0488     0.9784
A_1     C     0.1331     0.8424     0.9383
A_0     C     0.9908     0.088     0.7199
A_3     C     0.0656     0.7405     0.0809
A_3     C     0.012     0.25     0.6092
A_3     C     0.521     0.2592     0.3689
A_3     C     0.3943     0.1457     0.2392
A_3     C     0.827     0.9262     0.1635
A_2     C     0.6683     0.4238     0.7751
A_0     C     0.3989     0.5008     0.5259
A_0     C     0.6637     0.5935     0.6184
A_1     C     0.3785     0.5027     0.2531
A_2     C     0.6301     0.3889     0.5646
A_3     C     0.9495     0.7945     0.1155
A_1     C     0.707     0.4362     0.4715
A_1     C     0.9251     0.3678     0.7686
A_3     C     0.9194     0.2948     0.8961
A_0     C     0.5933     0.5146     0.5854
A_0     C     0.3229     0.4819     0.5415
A_3     C     0.9989     0.1038     0.0741
A_2     C     0.4185     0.2424     0.2043
A_3     C     0.5887     0.9907     0.596
A_3     C     0.3682     0.6118     0.1371
A_0     C     0.4553     0.5183     0.8755
A_1     C     0.4262     0.5512     0.9023
A_2     C     0.6215     0.6444     0.6596
A_3     C     0.377     0.6154     0.5346
A_2     C     0.0444     0.6613     0.5503
A_3     C     0.0111     0.1924     0.7331
A_0     C     0.9408     0.2837     0.8689
A_3     C     0.4141     0.3042     0.3533
A_1     C     0.4695     0.7024     0.7731
A_0     C     0.7359     0.5779     0.1451
A_0     C     0.0414     0.6571     0.3227
A_3     C     0.8012     0.5034     0.4746
A_3     C     0.3881     0.276     0.7136
A_2     C     0.5384     0.7167     0.7473
A_2     C     0.4164     0.1586     0.5272
A_3     C     0.6784     0.5028     0.6088
A_1     C     0.6014     0.7112     0.1864
A_2     C     0.1253     0.8441     0.5113
A_2     C     0.5908     0.2486     0.2548
A_2     C     0.6353     0.2567     0.2915
A_3     C     0.4637     0.9105     0.7042
A_1     C     0.7957     0.0268     0.6408
A_2     C     0.1307     0.1607     0.511
A_3     C     0.7141     0.3056     0.6855
A_0     C     0.7397     0.0459     0.503
A_3     C     0.7811     0.0273     0.9987
A_0     C     0.04     0.9165     0.1773
A_0     C     0.6238     0.699     0.2969
A_1     C     0.8575     0.9375     0.6681
A_2     C     0.6212     0.0644     0.3922
A_1     C     0.7139     0.2488     0.1334
A_2     C     0.9452     0.2213     0.1295
A_0     C     0.4867     0.5081     0.2631
A_0     C     0.6392     0.8761     0.4888
A_3     C     0.4322     0.7831     0.7524
A_1     C     0.5434     0.9598     0.9815
A_1     C     0.5713     0.0332     0.1566
A_3     C     0.2461     0.2802     0.376
A_0     C     0.2965     0.3786     0.9005
A_1     C     0.1511     0.4983     0.7693
A_0     C     0.4965     0.7322     0.9299
A_3     C     0.067     0.4104     0.5262
A_2     C     0.8321     0.273     0.5551
A_1     C     0.8261     0.3202     0.8246
A_0     C     0.6924     0.8112     0.3824
A_2     C     0.2249     0.3772     0.5412
A_1     C     0.7746     0.6326     0.6875
A_0     C     0.6693     0.1874     0.4171
A_3     C     0.4402     0.3168     0.0387
A_3     C     0.7737     0.9703     0.3007
A_1     C     0.2001     0.5595     0.8212
A_0     C     0.7089     0.9687     0.2201
A_1     C     0.7308     0.1409     0.204
A_3     C     0.9179     0.01     0.1881
A_3     C     0.9072     0.4708     0.5365
A_1     C     0.3014     0.3435     0.6892
A_1     C     0.7603     0.9939     0.396
A_3     C     0.8764     0.1586     0.6685
A_3     C     0.1737     0.0568     0.4731
A_3     C     0.6574     0.8617     0.976
A_1     C     0.2071     0.3375     0.4613
A_1     C     0.221     0.2281     0.6881
A_2     C     0.9816     0.4858     0.1699
A_1     C     0.8298     0.7625     0.6008
A_0     C     0.1533     0.5165     0.729
A_0     C     0.939     0.1564     0.1827
A_0     C     0.9395     0.5488     0.4149
A_3     C     0.097     0.3856     0.6212
A_0     C     0.5789     0.9129     0.3811
A_3     C     0.2706     0.1357     0.4728
A_0     C     0.6981     0.4315     0.0396
A_2     C     0.4593     0.5214     0.8419
A_2     C     0.8623     0.7989     0.259
A_1     C     0.7968     0.7255     0.8994
A_0     C     0.4755     0.4697     0.9256
A_2     C     0.5452     0.8036     0.4924
A_2     C     0.1149     0.9092     0.7783
A_0     C     0.9139     0.4394     0.8487
A_3     C     0.9914     0.5421     0.8217
A_3     C     0.2602     0.0162     0.748
A_0     C     0.1657     0.1561     0.3037
A_2     C     0.0454     0.1954     0.1647
A_0     C     0.6346     0.9342     0.325
A_3     C     0.531     0.4931     0.2671
A_2     C     0.2407     0.7669     0.7225
A_2     C     0.7632     0.622     0.079
A_0     C     0.798     0.0163     0.6044
A_3     C     0.4227     0.5749     0.1916
A_1     C     0.0439     0.8364     0.4011
A_1     C     0.4651     0.8432     0.9367
A_2     C     0.8447     0.7424     0.7468
A_2     C     0.5564     0.789     0.6908
A_1     C     0.2092     0.7373     0.4828
A_2     C     0.8457     0.891     0.3294
A_2     C     0.459     0.665     0.6282
A_0     C     0.7992     0.6919     0.2795
A_3     C     0.0507     0.482     0.3417
A_1     C     0.3106     0.5611     0.5007
A_2     C     0.9693     0.634     0.5286
A_1     C     0.0234     0.1395     0.6903
A_2     C     0.4733     0.4912     0.3429
A_2     C     0.1056     0.014     0.3171
A_1     C     0.0147     0.0174     0.8489
A_3     C     0.1934     0.2215     0.5188
A_3     C     0.3087     0.2826     0.8425
A_2     C     0.5738     0.7268     0.4421
A_1     C     0.0176     0.227     0.0787
A_1     C     0.9405     0.245     0.385
A_0     C     0.9224     0.6378     0.4722
A_0     C     0.3155     0.2344     0.8524
A_0     C     0.9854     0.0511     0.2206
A_0     C     0.6455     0.0699     0.2406
A_3     C     0.7781     0.6067     0.7073
A_2     C     0.2734     0.1718     0.5537
A_1     C     0.115     0.1988     0.5842
A_3     C     0.8357     0.6969     0.8819
A_2     C     0.6195     0.0795     0.4447
A_2     C     0.8779     0.9492     0.6493
A_0     C     0.3664     0.2484     0.8508
A_2     C     0.3166     0.9174     0.7865
A_2     C     0.316     0.5808     0.8078
A_1     C     0.2152     0.0297     0.3164
A_2     C     0.2992     0.14     0.1706
A_0     C     0.9504     0.7483     0.6416
A_1     C     0.4187     0.6131     0.2912
A_1     C     0.7811     0.1748     0.2817
A_2     C     0.0571     0.2156     0.0757
A_0     C     0.6747     0.8184     0.4589
A_3     C     0.5666     0.4044     0.8444
A_1     C     0.0139     0.2054     0.5084
A_0     C     0.9015     0.0343     0.0783
A_3     C     0.2301     0.539     0.6247
A_0     C     0.5117     0.8941     0.9037
A_2     C     0.7932     0.909     0.7041
A_0     C     0.7038     0.1871     0.5405
A_3     C     0.0446     0.302     0.2968
A_2     C     0.1655     0.3817     0.2925
A_2     C     0.9682     0.5906     0.3332
A_3     C     0.5165     0.9722     0.9505
A_3     C     0.5668     0.727     0.6989
A_3     C     0.9755     0.9813     0.258
A_3     C     0.0343     0.2676     0.9744
A_1     C     0.6855     0.4349     0.3904
A_3     C     0.829     0.5329     0.108
A_0     C     0.961     0.166     0.2924
A_1     C     0.588     0.1398     0.4826
A_1     C     0.2984     0.0822     0.07
A_1     C     0.4394     0.6533     0.2122
A_0     C     0.2846     0.8884     0.2123
A_3     C     0.6638     0.581     0.4173
A_0     C     0.3208     0.5291     0.8945
A_1     C     0.1259     0.8008     0.3672
A_2     C     0.4442     0.4806     0.9302
A_1     C     0.8935     0.1446     0.3791
A_3     C     0.6131     0.6037     0.1261
A_1     C     0.4721     0.3656     0.3767
A_3     C     0.5318     0.5479     0.6434
A_0     C     0.7643     0.2838     0.6322
A_1     C     0.5042     0.2244     0.3517
A_0     C     0.2127     0.992     0.3395
A_3     C     0.4264     0.5212     0.4635
A_2     C     0.6726     0.7653     0.7329
A_1     C     0.9328     0.903     0.3814
A_1     C     0.3696     0.7507     0.9866
A_0     C     0.3713     0.3155     0.4972
A_1     C     0.5089     0.1903     0.2076
A_1     C     0.968     0.9455     0.3993
A_0     C     0.7227     0.8353     0.7081
A_0     C     0.6107     0.121     0.5303
A_1     C     0.9402     0.5911     0.4685
A_0     C     0.2095     0.7686     0.3378
A_2     C     0.8425     0.5607     0.2631
A_2     C     0.2593     0.8216     0.4642
A_2     C     0.4611     0.7277     0.4179
A_3     C     0.4556     0.254     0.1437
A_3     C     0.8895     0.3463     0.605
A_3     C     0.8123     0.1021     0.5649
A_0     C     0.7558     0.4726     0.2577
A_1     C     0.3191     0.4188     0.2217
A_1     C     0.9544     0.162     0.1554
A_2     C     0.1209     0.8384     0.7648
A_3     C     0.8973     0.6519     0.5969
A_2     C     0.7213     0.6848     0.7198
A_2     C     0.1454     0.3744     0.0487
A_1     C     0.479     0.5054     0.1209
A_1     C     0.5207     0.1435     0.7789
A_0     C     0.367     0.5789     0.7604
A_2     C     0.2126     0.9127     0.452
A_1     C     0.7938     0.795     0.0922
A_3     C     0.9439     0.4684     0.854
A_3     C     0.9741     0.7161     0.3889
A_0     C     0.3614     0.7292     0.7196
A_3     C     0.6137     0.5965     0.6291
A_2     C     0.5205     0.9826     0.7978
A_3     C     0.1296     0.8615     0.5097
A_1     C     0.4081     0.5517     0.1788
A_3     C     0.429     0.8148     0.659
A_1     C     0.8918     0.4455     0.1924
A_2     C     0.5862     0.4845     0.3478
A_0     C     0.5993     0.5868     0.0255
A_3     C     0.276     0.9678     0.898
A_3     C     0.8485     0.7233     0.3273
A_0     C     0.7601     0.9262     0.6045
A_2     C     0.5823     0.8454     0.5558
A_1     C     0.1052     0.7586     0.1318
A_2     C     0.1029     0.8294     0.6796
A_2     C     0.337     0.1529     0.8699
A_0     C     0.5458     0.8775     0.7074
A_3     C     0.1649     0.072     0.2223
A_3     C     0.3404     0.7228     0.03
A_3     C     0.4808     0.3048     0.3022
A_3     C     0.3967     0.0812     0.5113
A_0     C     0.1728     0.6991     0.8207
A_0     C     0.5099     0.813     0.0226
A_1     C     0.8906     0.0352     0.5551
A_3     C     0.409     0.4517     0.5978
A_2     C     0.5311     0.6702     0.7565
A_1     C     0.4619     0.076     0.8734
A_2     C     0.1012     0.3875     0.1472
A_0     C     0.3053     0.9202     0.2529
A_3     C     0.0551     0.5062     0.1653
A_0     C     0.0687     0.711     0.6669
A_1     C     0.3458     0.4956     0.1481
A_3     C     0.0938     0.6677     0.1824
A_3     C     0.7326     0.586     0.9038
A_1     C     0.6056     0.0395     0.1312
A_1     C     0.4204     0.0521     0.8441
A_3     C     0.7552     0.105     0.5635
A_2     C     0.498     0.463     0.4723
A_3     C     0.9387     0.426     0.6391
A_1     C     0.5778     0.1058     0.1067
A_0     C     0.248     0.5801     0.2474
A_0     C     0.1562     0.0165     0.2002
A_2     C     0.2829     0.2014     0.8921
A_1     C     0.2055     0.6791     0.4963
A_1     C     0.175     0.9296     0.4723
A_1     C     0.3673     0.1996     0.7802
A_1     C     0.3908     0.7275     0.0576
A_3     C     0.3953     0.5107     0.2719
A_1     C     0.4356     0.1492     0.2715
A_0     C     0.1319     0.5354     0.3736
A_0     C     0.9087     0.1696     0.3102
A_0     C     0.8254     0.6439     0.8954
A_3     C     0.7885     0.8768     0.1939
A_2     C     0.1411     0.5244     0.5002
A_2     C     0.8463     0.3602     0.5827
A_2     C     0.1808     0.1733     0.8099
A_1     C     0.465     0.5233     0.1384
A_0     C     0.9014     0.7451     0.6137
A_3     C     0.5797     0.3899     0.5636
A_0     C     0.7735     0.6209     0.7228
A_0     C     0.2252     0.7611     0.1164
A_3     C     0.7153     0.8097     0.5162
A_3     C     0.1643     0.0263     0.0362
A_2     C     0.5151     0.0708     0.9684
A_2     C     0.2151     0.9342     0.553
A_2     C     0.4283     0.9548     0.5135
A_0     C     0.6914     0.1585     0.2191
A_3     C     0.7366     0.0916     0.4072
A_3     C     0.7813     0.0548     0.076
A_1     C     0.9147     0.8601     0.6578
A_3     C     0.7791     0.7685     0.8945
A_0     C     0.9006     0.8075     0.536
A_3     C     0.824     0.0962     0.4663
A_2     C     0.6     0.5246     0.0003
A_0     C     0.0273     0.0278     0.9618
A_1     C     0.3554     0.3682     0.9016
A_0     C     0.519     0.0983     0.9269
A_0     C     0.7205     0.0974     0.4011
A_0     C     0.4965     0.0858     0.2518
A_2     C     0.1733     0.225     0.125
A_0     C     0.8239     0.6557     0.2117
A_0     C     0.6599     0.9612     0.9854
A_2     C     0.077     0.8215     0.3684
A_3     C     0.9078     0.5545     0.517
A_2     C     0.1765     0.2608     0.6824
A_2     C     0.0342     0.3144     0.4465
A_2     C     0.9164     0.2518     0.1495
A_1     C     0.9277     0.8622     0.8311
A_3     C     0.3452     0.2468     0.0974
A_1     C     0.423     0.0009     0.5728
A_2     C     0.4139     0.4544     0.6822
A_0     C     0.5652     0.2051     0.588
A_0     C     0.8597     0.57     0.053
A_3     C     0.7674     0.764     0.483
A_3     C     0.4814     0.3711     0.4885
A_3     C     0.2792     0.8908     0.9132
A_3     C     0.9164     0.8353     0.4772
A_2     C     0.8699     0.9996     0.2695
A_3     C     0.1224     0.113     0.5326
A_1     C     0.803     0.4124     0.6531
A_2     C     0.1208     0.0431     0.1786
A_3     C     0.3296     0.7723     0.315
A_3     C     0.4328     0.5026     0.8406
A_2     C     0.9948     0.1216     0.6155
A_1     C     0.2013     0.634     0.3738
A_3     C     0.3989     0.6957     0.3877
A_3     C     0.2042     0.2181     0.5324
A_3     C     0.6312     0.384     0.3392
A_1     C     0.5116     0.6144     0.0923
A_2     C     0.2239     0.0678     0.7796
A_2     C     0.6362     0.7766     0.4051
A_3     C     0.6293     0.0086     0.046
A_2     C     0.1407     0.7821     0.6324
A_0     C     0.9362     0.1822     0.7464
A_2     C     0.6211     0.3226     0.6995
A_1     C     0.5693     0.2286     0.4609
A_3     C     0.7937     0.9686     0.7421
A_0     C     0.3834     0.2696     0.8841
A_1     C     0.8006     0.2519     0.4368
A_1     C     0.2681     0.9849     0.9193
A_2     C     0.0154     0.8349     0.8067
A_2     C     0.9254     0.5711     0.3549
A_0     C     0.4787     0.5204     0.6159
A_0     C     0.4183     0.1267     0.6581
A_3     C     0.0467     0.8192     0.7703
A_0     C     0.1177     0.9529     0.8273
A_0     C     0.5211     0.3008     0.7649
A_3     C     0.4622     0.5565     0.5907
A_3     C     0.3053     0.7956     0.8539
A_3     C     0.1499     0.3358     0.2173
A_3     C     0.9633     0.7657     0.3467
A_2     C     0.2853     0.275     0.2102
A_1     C     0.1275     0.7494     0.1548
A_3     C     0.7808     0.0677     0.5267
A_1     C     0.2019     0.8949     0.2849
A_2     C     0.4175     0.3343     0.7567
A_3     C     0.6511     0.7888     0.1861
A_3     C     0.1439     0.06     0.1343
A_1     C     0.1818     0.5969     0.761
A_3     C     0.9254     0.5958     0.973
A_2     C     0.879     0.7799     0.6388
A_1     C     0.8508     0.361     0.0276
A_0     C     0.2079     0.7701     0.2043
A_2     C     0.7425     0.9193     0.5867
A_0     C     0.8202     0.2803     0.0765
A_2     C     0.9735     0.6021     0.1303
A_3     C     0.9946     0.8102     0.7542
A_2     C     0.1112     0.353     0.5891
A_0     C     0.883     0.3996     0.5109
A_2     C     0.4536     0.6585     0.7694
A_3     C     0.7979     0.1407     0.7508
A_0     C     0.5509     0.2427     0.357
A_2     C     0.417     0.6763     0.2373
A_0     C     0.348     0.5478     0.4156
A_1     C     0.7807     0.9084     0.2579
A_3     C     0.9133     0.9545     0.0618
A_0     C     0.0823     0.1636     0.5875
A_1     C     0.5502     0.4525     0.3081
A_3     C     0.9601     0.9677     0.1235
A_2     C     0.6459     0.7304     0.4528
A_1     C     0.222     0.1821     0.6715
A_0     C     0.0571     0.4739     0.6785
A_0     C     0.5898     0.582     0.2108
A_2     C     0.6954     0.316     0.7377
A_3     C     0.9847     0.0766     0.672
A_3     C     0.6639     0.1842     0.4332
A_0     C     0.2793     0.2436     0.4126
A_0     C     0.4803     0.8138     0.896
A_2     C     0.0051     0.1291     0.9145
A_2     C     0.6412     0.0089     0.5553
A_3     C     0.7117     0.1234     0.4593
A_1     C     0.3313     0.6621     0.4763
A_0     C     0.7222     0.0719     0.498
A_0     C     0.3832     0.239     0.0757
A_3     C     0.5672     0.8998     0.0279
A_0     C     0.8187     0.6106     0.401
A_0     C     0.542     0.9251     0.6222
A_3     C     0.2317     0.8305     0.2405
A_2     C     0.4341     0.15     0.9528
A_2     C     0.9611     0.9747     0.399
A_3     C     0.7439     0.8339     0.4259
A_2     C     0.6164     0.4238     0.182
A_1     C     0.3031     0.2164     0.8303
A_2     C     0.2764     0.2991     0.9871
A_1     C     0.5702     0.5854     0.3673
A_1     C     0.1856     0.6569     0.0309
A_2     C     0.5972     0.8696     0.0739
A_2     C     0.2218     0.0683     0.2274
A_0     C     0.0075     0.1787     0.3793
A_1     C     0.0974     0.7432     0.4985
A_2     C     0.8209     0.662     0.9833
A_2     C     0.9894     0.7557     0.5929
A_2     C     0.7044     0.2155     0.6097
A_1     C     0.1475     0.2021     0.9276
A_0     C     0.4881     0.733     0.6859
A_0     C     0.668     0.8458     0.3156
A_3     C     0.1999     0.9833     0.5359
A_2     C     0.7597     0.8279     0.5856
A_2     C     0.3564     0.7379     0.5267
A_3     C     0.164     0.6487     0.2385
A_0     C     0.8304     0.3333     0.2587
A_2     C     0.6709     0.9116     0.1835
A_2     C     0.0703     0.357     0.1449
A_3     C     0.7095     0.3846     0.6285
A_0     C     0.4888     0.5431     0.961
A_1     C     0.0794     0.1221     0.2676
A_0     C     0.0839     0.3333     0.7805
A_3     C     0.9264     0.1212     0.8564
A_1     C     0.6332     0.8378     0.8543
A_3     C     0.0209     0.8249     0.9947
A_0     C     0.3706     0.523     0.1713
A_1     C     0.9412     0.1458     0.7492
A_1     C     0.6976     0.3723     0.3804
A_3     C     0.9016     0.5794     0.8927
A_2     C     0.2465     0.695     0.7795
A_3     C     0.4974     0.0733     0.5152
A_0     C     0.5066     0.7997     0.9193
A_0     C     0.4242     0.6157     0.5353
A_2     C     0.7049     0.6669     0.0113
A_3     C     0.7848     0.852     0.6094
A_3     C     0.8471     0.0949     0.7377
A_2     C     0.9719     0.4058     0.5134
A_1     C     0.2497     0.2815     0.41
A_3     C     0.6085     0.2927     0.8616
A_3     C     0.4919     0.9742     0.5246
A_2     C     0.464     0.8904     0.584
A_3     C     0.7684     0.0607     0.6485
A_0     C     0.7589     0.5082     0.597
A_0     C     0.0019     0.2424     0.67
A_0     C     0.0518     0.5115     0.8276
A_2     C     0.1143     0.3071     0.1155
A_1     C     0.6269     0.0861     0.0134
A_1     C     0.3536     0.1243     0.2991
A_2     C     0.254     0.8599     0.2463
A_3     C     0.424     0.7339     0.6628
A_0     C     0.5067     0.7503     0.8986
A_2     C     0.4249     0.8737     0.1383
A_3     C     0.1417     0.1627     0.864
A_2     C     0.7351     0.3761     0.2569
A_3     C     0.6556     0.6399     0.1185
A_1     C     0.0832     0.2145     0.3377
A_0     C     0.5569     0.5109     0.7383
A_1     C     0.6572     0.3169     0.6889
A_1     C     0.6557     0.4903     0.2565
A_0     C     0.1199     0.6619     0.3906
A_0     C     0.6273     0.4164     0.6723
A_3     C     0.2083     0.465     0.286
A_2     C     0.2831     0.1867     0.6567
A_0     C     0.917     0.2422     0.2712
A_0     C     0.4529     0.7218     0.1638
A_2     C     0.3007     0.3541     0.0011
A_1     C     0.4761     0.9138     0.0902
A_1     C     0.6852     0.1559     0.8768
A_0     C     0.662     0.4582     0.0068
A_1     C     0.6065     0.5384     0.1632
A_3     C     0.5686     0.5032     0.3299
A_1     C     0.2283     0.7361     0.8345
A_2     C     0.8093     0.6267     0.2543
A_2     C     0.2214     0.6367     0.1402
A_3     C     0.6894     0.544     0.5711
A_1     C     0.7869     0.8686     0.0404
A_3     C     0.2871     0.9306     0.8216
A_1     C     0.4848     0.1315     0.3093
A_1     C     0.7793     0.5817     0.4448
A_3     C     0.9386     0.6571     0.3435
A_0     C     0.0041     0.028     0.964
A_0     C     0.3469     0.9788     0.7079
A_1     C     0.0322     0.2177     0.4586
A_2     C     0.1592     0.0466     0.5643
A_0     C     0.1002     0.9759     0.8488
A_2     C     0.9772     0.0821     0.6131
A_1     C     0.0287     0.3443     0.6695
A_1     C     0.7483     0.3595     0.6965
A_3     C     0.012     0.2041     0.9642
A_1     C     0.748     0.0857     0.1671
A_2     C     0.8736     0.6848     0.4046
A_0     C     0.7562     0.3443     0.9603
A_2     C     0.7564     0.7862     0.6477
A_0     C     0.3606     0.9523     0.1218
A_0     C     0.5548     0.033     0.5374
A_1     C     0.938     0.7292     0.793
A_3     C     0.9089     0.5976     0.2641
A_2     C     0.7093     0.3703     0.3552
A_0     C     0.1032     0.3885     0.9617
A_0     C     0.3469     0.4088     0.1944
A_1     C     0.6364     0.1403     0.4433
A_1     C     0.4359     0.7126     0.5196
A_1     C     0.319     0.9519     0.1676
A_2     C     0.0944     0.364     0.3556
A_3     C     0.1752     0.8537     0.4494
A_3     C     0.3429     0.7262     0.2837
A_3     C     0.9436     0.2761     0.9195
A_0     C     0.6423     0.2532     0.8882
A_3     C     0.6034     0.4082     0.9985
A_3     C     0.6863     0.5505     0.603
A_3     C     0.9035     0.6735     0.6049
A_3     C     0.772     0.474     0.178
A_2     C     0.9551     0.9731     0.23
A_0     C     0.8058     0.5936     0.9023
A_3     C     0.014     0.0747     0.8128
A_0     C     0.5774     0.5798     0.0041
A_2     C     0.3371     0.8704     0.5483
A_0     C     0.1889     0.2607     0.5264
A_3     C     0.2036     0.7728     0.1402
A_3     C     0.265     0.3179     0.5318
A_2     C     0.6436     0.8383     0.6376
A_1     C     0.7273     0.2076     0.6572
A_0     C     0.5887     0.3588     0.325
A_2     C     0.8777     0.2607     0.059
A_3     C     0.718     0.8009     0.4985
A_2     C     0.2634     0.7104     0.8125
A_3     C     0.4588     0.9881     0.8509
A_0     C     0.9765     0.5556     0.2462
A_3     C     0.4581     0.4884     0.4234
A_1     C     0.4352     0.2455     0.584
A_2     C     0.6082     0.211     0.3631
A_0     C     0.195     0.798     0.432
A_3     C     0.8071     0.4492     0.511
A_1     C     0.2071     0.1333     0.8724
A_1     C     0.9578     0.6999     0.3565
A_2     C     0.8323     0.5744     0.2293
A_2     C     0.6006     0.0229     0.7806
A_0     C     0.6028     0.2718     0.0496
A_3     C     0.6777     0.3649     0.4849
A_2     C     0.0477     0.7729     0.9111
A_2     C     0.6563     0.5478     0.6545
A_0     C     0.3373     0.8217     0.5411
A_0     C     0.025     0.1285     0.6699
A_0     C     0.3411     0.8187     0.6357
A_1     C     0.7647     0.4776     0.6863
A_0     C     0.7997     0.2461     0.6089
A_0     C     0.9492     0.654     0.773
A_1     C     0.1115     0.9988     0.3949
A_3     C     0.8778     0.4194     0.6836
A_2     C     0.8564     0.6156     0.7789
A_0     C     0.2611     0.9927     0.9819
A_2     C     0.6194     0.5256     0.8376
A_1     C     0.399     0.9129     0.0455
A_2     C     0.8918     0.9745     0.8278
A_3     C     0.4216     0.0832     0.4914
A_2     C     0.3521     0.3047     0.9238
A_3     C     0.1534     0.9369     0.5714
A_0     C     0.4341     0.2297     0.323
A_0     C     0.3528     0.5666     0.6265
A_2     C     0.2866     0.2013     0.187
A_0     C     0.2908     0.2314     0.444
A_3     C     0.0205     0.1534     0.9082
A_3     C     0.6392     0.5166     0.225
A_3     C     0.3846     0.238     0.5263
A_3     C     0.7134     0.583     0.3667
A_2     C     0.277     0.8646     0.8486
A_2     C     0.3212     0.4047     0.344
A_0     C     0.1468     0.7562     0.361
A_1     C     0.7428     0.0377     0.4154
A_3     C     0.9701     0.8767     0.9996
A_1     C     0.2832     0.9956     0.712
A_1     C     0.3908     0.3615     0.7149
A_3     C     0.6303     0.1211     0.796
A_3     C     0.8395     0.6866     0.6371
A_2     C     0.4499     0.4002     0.0836
A_2     C     0.1595     0.7873     0.4597
A_1     C     0.6737     0.7096     0.1525
A_3     C     0.8153     0.8898     0.8029
A_3     C     0.0628     0.2094     0.1862
A_0     C     0.6969     0.388     0.7633
A_0     C     0.8647     0.289     0.0972
A_1     C     0.4795     0.0107     0.1241
A_1     C     0.3673     0.8621     0.8507
A_0     C     0.8948     0.8924     0.0773
A_3     C     0.8728     0.9929     0.5914
A_2     C     0.8083     0.3831     0.6366
A_1     C     0.2379     0.5987     0.8187
A_1     C     0.2033     0.6768     0.0571
A_0     C     0.8633     0.3308     0.1278
A_2     C     0.0366     0.1106     0.6015
A_3     C     0.3539     0.1373     0.5648
A_1     C     0.7883     0.143     0.4338
A_2     C     0.1122     0.4857     0.4523
A_0     C     0.8063     0.6632     0.6326
A_3     C     0.84     0.8217     0.466
A_3     C     0.1205     0.0733     0.6498
A_3     C     0.053     0.7971     0.6549
A_0     C     0.1356     0.6792     0.1523
A_2     C     0.2183     0.4749     0.3676
A_0     C     0.936     0.5604     0.4793
A_2     C     0.4097     0.8555     0.219
A_1     C     0.5217     0.0612     0.9163
A_0     C     0.4713     0.5056     0.6119
A_2     C     0.8681     0.7525     0.8671
A_1     C     0.9745     0.7658     0.2747
A_3     C     0.7422     0.1684     0.9076
A_2     C     0.9124     0.0997     0.969
A_0     C     0.4757     0.0501     0.3183
A_0     C     0.7402     0.709     0.3966
A_3     C     0.0652     0.6064     0.9355
A_3     C     0.776     0.972     0.85
A_1     C     0.9153     0.7222     0.6531
A_2     C     0.2692     0.7522     0.7588
A_2     C     0.1408     0.1433     0.5047
A_3     C     0.9481     0.1974     0.4021
A_3     C     0.9468     0.376     0.462
A_2     C     0.325     0.7272     0.7909
A_2     C     0.8951     0.9945     0.9279
A_2     C     0.3496     0.3773     0.4786
A_2     C     0.003     0.9634     0.6674
A_0     C     0.9422     0.4798     0.4788
A_3     C     0.8292     0.3706     0.0001
A_2     C     0.5149     0.8467     0.9471
A_2     C     0.2943     0.4202     0.4035
A_0     C     0.1155     0.1486     0.5452
A_3     C     0.1452     0.4807     0.7555
A_3     C     0.0925     0.3147     0.1308
A_0     C     0.542     0.3963     0.5532
A_1     C     0.0694     0.3778     0.6545
A_0     C     0.8795     0.1668     0.0554
A_2     C     0.7816     0.8088     0.4871
A_1     C     0.6996     0.6097     0.6994
A_1     C     0.9807     0.0263     0.4004
A_3     C     0.8746     0.2823     0.253
A_3     C     0.7514     0.4312     0.7597
A_0     C     0.6413     0.5611     0.7805
A_2     C     0.1063     0.1552     0.3426
A_1     C     0.2084     0.4173     0.6472
A_3     C     0.881     0.3321     0.0893
A_0     C     0.9704     0.5206     0.2083
A_1     C     0.5047     0.1695     0.5311
A_3     C     0.2453     0.694     0.2162
A_0     C     0.3068     0.5407     0.8708
A_2     C     0.1041     0.3375     0.6151
A_3     C     0.3848     0.533     0.7026
A_2     C     0.3157     0.8631     0.5691
A_0     C     0.6005     0.1974     0.8988
A_2     C     0.0336     0.9552     0.2755
A_0     C     0.6296     0.6966     0.3037
A_2     C     0.6017     0.5635     0.3809
A_0     C     0.9757     0.4716     0.9814
A_1     C     0.4523     0.3305     0.4304
A_1     C     0.5355     0.4     0.6026
A_3     C     0.1378     0.1972     0.6785
A_3     C     0.2064     0.7031     0.1477
A_1     C     0.8566     0.3384     0.7561
A_0     C     0.3889     0.9715     0.8314
A_3     C     0.933     0.8893     0.0319
A_0     C     0.4853     0.0933     0.3057
A_2     C     0.7189     0.2994     0.6801
A_0     C     0.8228     0.5128     0.4105
A_2     C     0.247     0.9641     0.8743
A_1     C     0.4406     0.1381     0.6412
A_3     C     0.6821     0.4132     0.1213
A_2     C     0.3364     0.4121     0.8255
A_0     C     0.6703     0.3881     0.6847
A_3     C     0.8857     0.3335     0.1174
A_2     C     0.7464     0.4106     0.0432
A_0     C     0.0425     0.3779     0.0236
A_0     C     0.8142     0.5664     0.6895
A_0     C     0.7289     0.6847     0.232
A_0     C     0.2064     0.397     0.0334
A_0     C     0.0457     0.6342     0.1981
A_1     C     0.845     0.7596     0.8585
A_2     C     0.985     0.6728     0.2873
A_2     C     0.2243     0.1542     0.5256
A_2     C     0.5123     0.9269     0.415
A_1     C     0.8431     0.58     0.6448
A_2     C     0.0781     0.7684     0.7138
A_3     C     0.2209     0.4483     0.6709
A_2     C     0.2462     0.9919     0.585
A_2     C     0.0693     0.8746     0.9118
A_2     C     0.6282     0.0424     0.8797
A_3     C     0.5046     0.1817     0.7775
A_3     C     0.7033     0.2749     0.4366
A_3     C     0.3895     0.2352     0.3069
A_3     C     0.6969     0.3506     0.9861
A_1     C     0.3242     0.0004     0.6451
A_0     C     0.304     0.332     0.0212
A_0     C     0.7405     0.3446     0.8049
A_0     C     0.9384     0.3189     0.205
A_0     C     0.7706     0.0413     0.9928
A_2     C     0.4891     0.16     0.4093
A_0     C     0.4959     0.0606     0.1272
A_0     C     0.4327     0.1572     0.9672
A_1     C     0.0452     0.0342     0.2843
A_0     C     0.3518     0.5583     0.2703
A_3     C     0.7337     0.233     0.39
A_1     C     0.8858     0.6495     0.0168
A_0     C     0.4996     0.3275     0.8303
A_2     C     0.0669     0.7878     0.2507
A_1     C     0.2978     0.6747     0.3302
A_3     C     0.1303     0.6904     0.053
A_2     C     0.7226     0.5349     0.2128
A_2     C     0.4845     0.1678     0.231
A_1     C     0.6915     0.5405     0.1235
A_0     C     0.319     0.8619     0.2797
A_0     C     0.6857     0.9928     0.3416
A_1     C     0.4005     0.7555     0.2502
A_0     C     0.4818     0.9277     0.4545
A_1     C     0.0387     0.2473     0.68
A_0     C     0.9966     0.8427     0.3363
A_0     C     0.7044     0.7712     0.267
A_3     C     0.2258     0.1348     0.6284
A_2     C     0.5454     0.6854     0.5462
A_2     C     0.5099     0.0865     0.4996
A_0     C     0.7072     0.6836     0.1069
A_0     C     0.903     0.3213     0.3818
A_1     C     0.6481     0.8798     0.9482
A_3     C     0.8667     0.6395     0.0664
A_3     C     0.2388     0.4346     0.9206
A_3     C     0.5394     0.5906     0.403
A_3     C     0.8898     0.9777     0.9639
A_3     C     0.4976     0.4659     0.8351
A_1     C     0.7538     0.5792     0.0566
A_1     C     0.2236     0.7115     0.0285
A_0     C     0.1975     0.0033     0.6044
A_0     C     0.1133     0.5522     0.3707
A_2     C     0.9135     0.6718     0.3584
A_1     C     0.2915     0.4914     0.99
A_3     C     0.9938     0.3298     0.7129
A_1     C     0.5522     0.6944     0.6833
A_0     C     0.6819     0.3051     0.2464
A_3     C     0.7824     0.0086     0.2853
A_0     C     0.5092     0.4317     0.3652
A_3     C     0.0513     0.6681     0.4093
A_1     C     0.6666     0.5756     0.614
A_2     C     0.1272     0.3558     0.401
A_3     C     0.2657     0.3573     0.0058
A_0     C     0.5587     0.2717     0.0018
A_3     C     0.5582     0.8034     0.2586
A_3     C     0.8175     0.0902     0.0089
A_0     C     0.4325     0.0258     0.6849
A_0     C     0.0574     0.0754     0.0272
A_1     C     0.7737     0.0182     0.6592
A_3     C     0.2755     0.8559     0.9068
A_3     C     0.9991     0.1243     0.3677
A_1     C     0.1769     0.6     0.2892
A_1     C     0.1269     0.25     0.2476
A_3     C     0.4123     0.4913     0.0697
A_2     C     0.0214     0.6059     0.8953
A_2     C     0.3924     0.019     0.0661
A_2     C     0.8729     0.8846     0.8003
A_2     C     0.7522     0.3172     0.9989
A_3     C     0.226     0.9487     0.2897
A_1     C     0.4118     0.2728     0.7231
A_0     C     0.1786     0.9047     0.7473
A_1     C     0.6202     0.8964     0.2853
A_3     C     0.9244     0.427     0.1668
A_0     C     0.0921     0.189     0.5686
A_3     C     0.3965     0.5111     0.441
A_1     C     0.6023     0.3796     0.4151
A_1     C     0.4476     0.0303     0.7618
A_2     C     0.8916     0.8852     0.4991
A_3     C     0.9199     0.6015     0.3054
A_2     C     0.2331     0.9384     0.6666
A_3     C     0.4163     0.7086     0.1989
A_1     C     0.1188     0.6184     0.0346
A_0     C     0.7797     0.4158     0.993
A_3     C     0.5526     0.6963     0.685
A_3     C     0.1387     0.8799     0.4868
A_0     C     0.0001     0.5071     0.749
A_3     C     0.9549     0.1928     0.0739
A_3     C     0.5519     0.1557     0.2687
A_2     C     0.6182     0.2761     0.4257
A_2     C     0.7005     0.1566     0.8453
A_0     C     0.0794     0.2733     0.3393
A_3     C     0.7186     0.7781     0.6813
A_2     C     0.8621     0.9197     0.8634
A_0     C     0.4237     0.2964     0.9154
A_3     C     0.695     0.1148     0.0879
A_0     C     0.4784     0.7557     0.5848
A_2     C     0.223     0.4689     0.0705
A_1     C     0.9884     0.2381     0.0442
A_2     C     0.7461     0.0524     0.4602
A_0     C     0.4575     0.2277     0.3295
A_1     C     0.3231     0.486     0.6863
A_1     C     0.943     0.2542     0.6045
A_3     C     0.9173     0.0902     0.3184
A_3     C     0.8617     0.9153     0.6398
A_3     C     0.1471     0.9626     0.6612
A_1     C     0.5563     0.2862     0.773
A_0     C     0.4156     0.2096     0.6296
A_1     C     0.8418     0.2568     0.3212
A_1     C     0.8129     0.0081     0.855
A_1     C     0.0355     0.8078     0.8867
A_2     C     0.7225     0.6948     0.2474
A_2     C     0.0386     0.752     0.6338
A_2     C     0.4697     0.0624     0.721
A_0     C     0.7039     0.3213     0.1642
A_1     C     0.9854     0.6434     0.5842
A_3     C     0.4009     0.6293     0.654
A_3     C     0.236     0.7504     0.3875
A_1     C     0.8159     0.1059     0.9218
A_0     C     0.3972     0.1373     0.365
A_3     C     0.7594     0.6626     0.2691
A_1     C     0.8444     0.7732     0.8953
A_3     C     0.4984     0.5454     0.5184
A_3     C     0.1403     0.3871     0.5834
A_2     C     0.0003     0.4576     0.2259
A_1     C     0.9924     0.9189     0.1498
A_2     C     0.5205     0.7883     0.0181
A_0     C     0.9357     0.9671     0.9031
A_0     C     0.0407     0.6148     0.8269
A_1     C     0.9011     0.5941     0.0542
A_0     C     0.8262     0.2728     0.1157
A_2     C     0.4246     0.0635     0.1194
A_1     C     0.824     0.7674     0.0689
A_2     C     0.4055     0.278     0.8954
A_0     C     0.1203     0.4096     0.0967
A_1     C     0.8124     0.3011     0.6227
A_2     C     0.6523     0.646     0.3704
A_3     C     0.8983     0.0414     0.2727
A_3     C     0.143     0.5802     0.0037
A_0     C     0.3127     0.9437     0.254
A_1     C     0.367     0.0609     0.531
A_0     C     0.0049     0.5385     0.5514
A_1     C     0.9044     0.2843     0.6037
A_1     C     0.2815     0.947     0.7986
A_2     C     0.8328     0.0011     0.9881
A_1     C     0.3044     0.6859     0.5223
A_2     C     0.4131     0.2292     0.2987
A_0     C     0.0437     0.5686     0.2081
A_1     C     0.7977     0.4628     0.2439
A_3     C     0.8568     0.8604     0.9531
A_0     C     0.8503     0.6918     0.3821
A_3     C     0.4646     0.9002     0.992
A_1     C     0.3502     0.1657     0.0602
A_1     C     0.27     0.1503     0.6553
A_3     C     0.6512     0.4848     0.3454
A_0     C     0.2155     0.5404     0.7099
A_2     C     0.7626     0.7791     0.505
A_1     C     0.863     0.8806     0.8263
A_2     C     0.2788     0.3922     0.7454
A_2     C     0.9973     0.3046     0.2505
A_1     C     0.9577     0.7297     0.389
A_2     C     0.5405     0.5501     0.5658
A_1     C     0.4418     0.4284     0.1503
A_2     C     0.7908     0.6358     0.585
A_1     C     0.2372     0.6768     0.6287
A_1     C     0.0632     0.7639     0.2375
A_1     C     0.2085     0.2483     0.6824
A_1     C     0.6474     0.7565     0.9952
A_2     C     0.5253     0.3496     0.041
A_2     C     0.9589     0.0122     0.492
A_0     C     0.7268     0.1184     0.6198
A_0     C     0.6028     0.0254     0.1475
A_0     C     0.3969     0.6606     0.8463
A_1     C     0.0874     0.8683     0.9155
A_3     C     0.2826     0.4773     0.1254
A_2     C     0.6072     0.057     0.3863
A_0     C     0.4745     0.0457     0.6305
A_3     C     0.465     0.019     0.9033
A_3     C     0.4456     0.8354     0.4564
A_1     C     0.6086     0.2124     0.4661
A_0     C     0.6853     0.9902     0.4708
A_1     C     0.381     0.5048     0.5637
A_2     C     0.4308     0.0244     0.7219
A_3     C     0.3372     0.2166     0.8934
A_0     C     0.778     0.5908     0.3466
A_0     C     0.34     0.9186     0.6051
A_1     C     0.6171     0.4136     0.4369
A_1     C     0.5257     0.902     0.369
A_2     C     0.1617     0.7327     0.6453
A_3     C     0.5025     0.0828     0.846
A_3     C     0.6511     0.3396     0.456
A_1     C     0.245     0.0934     0.7902
A_3     C     0.2133     0.4573     0.2031
A_0     C     0.0299     0.2854     0.6067
A_2     C     0.1377     0.3007     0.0851
A_2     C     0.1278     0.3326     0.0231
A_2     C     0.1974     0.6999     0.8538
A_2     C     0.9089     0.4661     0.4092
A_1     C     0.5629     0.6115     0.7556
A_2     C     0.2309     0.1403     0.644
A_1     C     0.2165     0.239     0.8556
A_2     C     0.0759     0.2361     0.2445
A_1     C     0.6687     0.4651     0.748
A_3     C     0.9014     0.1903     0.9599
A_2     C     0.1889     0.4651     0.3452
A_3     C     0.8061     0.5052     0.0216
A_3     C     0.306     0.8523     0.4303
A_0     C     0.4764     0.1405     0.9478
A_0     C     0.1719     0.398     0.9521
A_1     C     0.4226     0.8272     0.3217
A_2     C     0.4154     0.8863     0.2996
A_1     C     0.6825     0.9648     0.9067
A_0     C     0.9844     0.6044     0.0681
A_1     C     0.2254     0.3024     0.4254
A_0     C     0.0729     0.1093     0.1795
A_0     C     0.4351     0.4845     0.4924
A_3     C     0.7192     0.8757     0.2845
A_3     C     0.174     0.159     0.4595
A_1     C     0.8934     0.9053     0.3509
A_1     C     0.6442     0.562     0.6511
A_0     C     0.1202     0.3882     0.2914
A_0     C     0.1764     0.5922     0.1754
A_0     C     0.0872     0.2564     0.586
A_2     C     0.3576     0.5274     0.3686
A_1     C     0.0265     0.3599     0.8454
A_3     C     0.1757     0.8111     0.0197
A_2     C     0.0616     0.9504     0.1192
A_3     C     0.3691     0.6504     0.2112
A_0     C     0.8442     0.2801     0.764
A_1     C     0.8556     0.9892     0.1654
A_2     C     0.8363     0.8487     0.2496
A_1     C     0.8476     0.8457     0.9024
A_3     C     0.6384     0.6587     0.2429
A_1     C     0.1023     0.9235     0.6661
A_3     C     0.4741     0.3063     0.8597
A_3     C     0.3195     0.6705     0.5728
A_3     C     0.351     0.7652     0.3899
A_2     C     0.8789     0.6046     0.2732
A_3     C     0.8368     0.9024     0.0708
A_2     C     0.5926     0.6865     0.1101
A_0     C     0.5307     0.2869     0.674
A_3     C     0.1894     0.5374     0.8975
A_3     C     0.4272     0.0864     0.8006
A_3     C     0.9501     0.0502     0.4539
A_3     C     0.2713     0.7759     0.8415
A_2     C     0.3793     0.6434     0.6978
A_2     C     0.3531     0.2709     0.5637
A_3     C     0.4483     0.4557     0.3399
A_1     C     0.7788     0.4254     0.5313
A_0     C     0.6268     0.0369     0.663
A_3     C     0.1954     0.3192     0.7634
A_3     C     0.2625     0.6175     0.0444
A_3     C     0.0498     0.4687     0.4521
A_2     C     0.9868     0.7302     0.5688
A_0     C     0.0462     0.6305     0.2689
A_3     C     0.7617     0.7406     0.2106
A_3     C     0.8734     0.5078     0.5646
A_2     C     0.4381     0.4114     0.1746
A_2     C     0.2642     0.289     0.6292
A_3     C     0.6759     0.0814     0.6362
A_3     C     0.3133     0.8502     0.3815
A_0     C     0.8972     0.0917     0.9441
A_0     C     0.4453     0.3623     0.267
A_0     C     0.9669     0.2604     0.2292
A_3     C     0.3092     0.8678     0.0097
A_0     C     0.0946     0.6638     0.2013
A_3     C     0.1783     0.8889     0.3621
A_0     C     0.3928     0.6083     0.3453
A_0     C     0.9103     0.0679     0.7935
A_3     C     0.6102     0.6686     0.1931
A_2     C     0.9701     0.2934     0.4
A_1     C     0.1833     0.2268     0.6196
A_1     C     0.0106     0.5275     0.014
A_3     C     0.452     0.9164     0.1383
A_1     C     0.2616     0.993     0.217
A_3     C     0.043     0.5067     0.7525
A_1     C     0.3604     0.0945     0.1651
A_2     C     0.7487     0.5036     0.9507
A_0     C     0.4109     0.7694     0.2554
A_1     C     0.9551     0.9055     0.8427
A_3     C     0.7482     0.4234     0.9917
A_0     C     0.8771     0.3396     0.5065
A_0     C     0.42     0.6483     0.7844
A_2     C     0.4161     0.9008     0.7556
A_0     C     0.3555     0.9001     0.1376
A_3     C     0.5227     0.6435     0.6818
A_2     C     0.9623     0.4732     0.4861
A_0     C     0.7016     0.493     0.8985
A_0     C     0.9141     0.1622     0.5884
A_0     C     0.7612     0.3419     0.9779
A_0     C     0.4897     0.9635     0.186
A_0     C     0.0772     0.5599     0.0452
A_0     C     0.303     0.8581     0.2678
A_3     C     0.0422     0.9971     0.0986
A_3     C     0.4383     0.8464     0.6341
A_1     C     0.1705     0.2652     0.576
A_2     C     0.5782     0.3584     0.5548
A_3     C     0.2011     0.6309     0.1539
A_2     C     0.8096     0.4518     0.6425
A_0     C     0.1566     0.0581     0.5382
A_1     C     0.4656     0.8195     0.7368
A_0     C     0.5689     0.444     0.069
A_3     C     0.3233     0.4238     0.1273
A_2     C     0.4643     0.744     0.721
A_1     C     0.1765     0.0194     0.0705
A_0     C     0.6734     0.6902     0.3461
A_3     C     0.4946     0.4846     0.7256
A_3     C     0.8314     0.2389     0.9539
A_0     C     0.7053     0.7026     0.2349
A_2     C     0.9253     0.8094     0.5765
A_3     C     0.1676     0.0127     0.6223
A_3     C     0.363     0.2214     0.8205
A_0     C     0.113     0.9795     0.3961
A_0     C     0.497     0.5193     0.1646
A_0     C     0.8171     0.0703     0.7154
A_1     C     0.0616     0.9735     0.3827
A_0     C     0.1586     0.2869     0.5189
A_3     C     0.6146     0.4614     0.7323
A_2     C     0.9611     0.1579     0.4253
A_2     C     0.4797     0.1389     0.1458
A_2     C     0.2462     0.4526     0.1179
A_0     C     0.7172     0.5441     0.6747
A_3     C     0.4113     0.767     0.9643
A_2     C     0.8484     0.4562     0.5836
A_2     C     0.8141     0.3288     0.3374
A_0     C     0.3844     0.9951     0.0187
A_2     C     0.269     0.9601     0.6717
A_3     C     0.7528     0.124     0.8939
A_2     C     0.2885     0.5313     0.951
A_3     C     0.6499     0.5143     0.0199
A_0     C     0.3027     0.2394     0.1158
A_0     C     0.3678     0.1315     0.2101
A_0     C     0.8219     0.793     0.5223
A_1     C     0.5141     0.4489     0.2821
A_0     C     0.4684     0.0681     0.7973
A_2     C     0.2052     0.7107     0.886
A_2     C     0.2612     0.1673     0.9465
A_2     C     0.6159     0.7613     0.3684
A_1     C     0.2682     0.4012     0.5809
A_1     C     0.3253     0.3417     0.2166
A_0     C     0.6971     0.734     0.5009
A_1     C     0.1449     0.6277     0.9819
A_1     C     0.4517     0.5542     0.2351
A_2     C     0.7589     0.3221     0.8262
A_1     C     0.3434     0.6069     0.1227
A_0     C     0.0276     0.7324     0.5878
A_3     C     0.1756     0.5933     0.0957
A_0     C     0.2283     0.0687     0.6866
A_3     C     0.5153     0.5672     0.2857
A_0     C     0.8569     0.7546     0.7387
A_2     C     0.8264     0.8099     0.769
A_0     C     0.962     0.1358     0.4371
A_3     C     0.8109     0.6859     0.1177
A_2     C     0.3428     0.237     0.6418
A_3     C     0.927     0.8987     0.0035
A_3     C     0.221     0.122     0.6705
A_0     C     0.0206     0.4076     0.2173
A_2     C     0.9387     0.4157     0.8498
A_0     C     0.1034     0.2053     0.8136
A_1     C     0.2589     0.7596     0.6685
A_3     C     0.3097     0.7379     0.9561
A_1     C     0.1472     0.2445     0.447
A_2     C     0.6524     0.2355     0.7124
A_1     C     0.6955     0.4943     0.0932
A_2     C     0.6207     0.8062     0.8356
A_1     C     0.2553     0.2072     0.1279
A_2     C     0.2896     0.4681     0.3774
A_3     C     0.8534     0.7889     0.1649
A_3     C     0.0045     0.3692     0.6632
A_0     C     0.3295     0.8142     0.5007
A_1     C     0.1959     0.5832     0.5363
A_1     C     0.3737     0.612     0.888
A_2     C     0.5878     0.3103     0.3168
A_3     C     0.1252     0.047     0.964
A_2     C     0.6212     0.5191     0.9758
A_3     C     0.2072     0.8394     0.7419
A_3     C     0.6257     0.3892     0.5144
A_2     C     0.8015     0.7777     0.3624
A_2     C     0.4716     0.793     0.3338
A_3     C     0.6068     0.1477     0.3137
A_1     C     0.2485     0.6577     0.5774
A_3     C     0.9016     0.9443     0.0929
A_3     C     0.523     0.4242     0.1794
A_0     C     0.1623     0.5011     0.2233
A_1     C     0.4903     0.4203     0.0633
A_3     C     0.817     0.0551     0.9233
A_0     C     0.927     0.5894     0.0096
A_0     C     0.4076     0.719     0.7471
A_3     C     0.3046     0.1037     0.9273
A_3     C     0.3635     0.2301     0.4195
A_0     C     0.7181     0.4007     0.2916
A_2     C     0.9982     0.9231     0.5206
A_3     C     0.6656     0.0727     0.4896
A_1     C     0.9417     0.6426     0.3288
A_0     C     0.9984     0.36     0.1573
A_0     C     0.8482     0.9452     0.0454
A_1     C     0.1394     0.6769     0.6872
A_1     C     0.3753     0.6388     0.4436
A_1     C     0.6375     0.373     0.6349
A_3     C     0.7046     0.9995     0.1924
A_1     C     0.5392     0.4773     0.4416
A_1     C     0.7636     0.8455     0.0636
A_0     C     0.0991     0.0438     0.136
A_0     C     0.1534     0.0954     0.079
A_3     C     0.9287     0.7887     0.179
A_1     C     0.5368     0.3005     0.8239
A_3     C     0.7664     0.4472     0.9419
A_2     C     0.1523     0.1593     0.9084
A_1     C     0.7536     0.4643     0.2724
A_0     C     0.7019     0.3678     0.0921
A_1     C     0.6078     0.1521     0.8285
A_3     C     0.7812     0.159     0.7324
A_3     C     0.2829     0.8335     0.9554
A_0     C     0.0779     0.1203     0.4493
A_1     C     0.3797     0.2314     0.5111
A_3     C     0.0773     0.4488     0.0458
A_0     C     0.0437     0.6185     0.2284
A_0     C     0.1317     0.1594     0.4051
A_3     C     0.5447     0.1014     0.1817
A_0     C     0.3912     0.6278     0.7473
A_0     C     0.174     0.6652     0.1571
A_2     C     0.0351     0.1368     0.3878
A_1     C     0.7323     0.2175     0.2026
A_0     C     0.3064     0.6929     0.2898
A_2     C     0.9128     0.0063     0.1531
A_3     C     0.4079     0.1592     0.1382
A_1     C     0.8362     0.4811     0.4748
A_0     C     0.13     0.027     0.5585
A_1     C     0.0917     0.1888     0.241
A_2     C     0.3502     0.7882     0.2464
A_1     C     0.9432     0.342     0.6801
A_0     C     0.7134     0.437     0.9606
A_3     C     0.0556     0.0304     0.6333
A_3     C     0.8653     0.2063     0.8743
A_0     C     0.1642     0.0088     0.3322
A_0     C     0.6969     0.0685     0.7611
A_3     C     0.3182     0.2963     0.5723
A_3     C     0.8172     0.5057     0.0005
A_2     C     0.5858     0.7994     0.5497
A_3     C     0.1686     0.725     0.915
A_0     C     0.2712     0.9056     0.8468
A_3     C     0.2944     0.0318     0.4885
A_0     C     0.3658     0.2684     0.5487
A_3     C     0.2405     0.6586     0.5703
A_1     C     0.4204     0.6678     0.1383
A_0     C     0.8576     0.5105     0.8628
A_3     C     0.2853     0.6279     0.0848
A_2     C     0.2009     0.6342     0.8241
A_1     C     0.3858     0.4209     0.6612
A_2     C     0.5775     0.8426     0.2062
A_3     C     0.8848     0.2437     0.0311
A_3     C     0.6576     0.694     0.9735
A_0     C     0.9406     0.6302     0.7523
A_1     C     0.2231     0.3977     0.4261
A_1     C     0.0667     0.7065     0.8397
A_1     C     0.2036     0.6874     0.3642
A_0     C     0.2204     0.4826     0.6061
A_2     C     0.7193     0.8722     0.8377
A_0     C     0.0698     0.3674     0.2777
A_1     C     0.6431     0.7296     0.3373
A_2     C     0.4337     0.2415     0.5824
A_3     C     0.9308     0.3539     0.872
A_3     C     0.9011     0.1631     0.5376
A_3     C     0.251     0.4686     0.3074
A_1     C     0.9952     0.4967     0.7935
A_1     C     0.5941     0.8716     0.321
A_1     C     0.5911     0.8089     0.9478
A_2     C     0.9494     0.3684     0.8034
A_0     C     0.9206     0.5028     0.4983
A_1     C     0.4774     0.1883     0.9629
A_2     C     0.8474     0.4384     0.1271
A_3     C     0.0403     0.076     0.7516
A_2     C     0.6985     0.4863     0.9093
A_2     C     0.1448     0.6047     0.88
A_2     C     0.5731     0.6712     0.3422
A_2     C     0.0516     0.3638     0.6266
A_0     C     0.8531     0.6543     0.5681
A_0     C     0.2848     0.0306     0.5382
A_3     C     0.2836     0.8609     0.8472
A_2     C     0.0254     0.3896     0.3941
A_2     C     0.7748     0.6151     0.0739
A_3     C     0.751     0.7005     0.2453
A_0     C     0.9735     0.9293     0.0926
A_0     C     0.7199     0.8562     0.8296
A_0     C     0.6101     0.2168     0.3262
A_3     C     0.1094     0.5149     0.3092
A_2     C     0.9782     0.0643     0.9218
A_2     C     0.204     0.1596     0.1505
A_0     C     0.8609     0.4692     0.8172
A_3     C     0.1431     0.8892     0.3104
A_1     C     0.012     0.327     0.9287
A_2     C     0.4824     0.6757     0.3843
A_3     C     0.9962     0.1642     0.9098
A_2     C     0.127     0.2343     0.2614
A_2     C     0.9495     0.337     0.5416
A_1     C     0.7903     0.199     0.8331
A_2     C     0.4636     0.2493     0.6103
A_1     C     0.01     0.3982     0.1981
A_3     C     0.3468     0.4552     0.9015
A_1     C     0.7309     0.5938     0.3252
A_1     C     0.2709     0.0622     0.8181
A_3     C     0.4459     0.9888     0.4039
A_3     C     0.4123     0.4537     0.9972
