MAT-17

loop_
_symmetry_equiv_pos_as_xyz
  x,y,z
_cell_length_a          40.7563
_cell_length_b          18.5823
_cell_length_c          44.7458
_cell_angle_alpha       90.0000
_cell_angle_beta        90.0000
_cell_angle_gamma       90.0000
loop_
_atom_site_label
_atom_site_type_symbol
_atom_site_fract_x
_atom_site_fract_y
_atom_site_fract_z
A_2     C     0.7944     0.5846     0.5143
A_2     C     0.4829     0.5031     0.1367
A_3     C     0.3379     0.2879     0.5045
A_3     C     0.1444     0.7985     0.4925
A_3     C     0.3382     0.9918     0.9439
A_1     C     0.8609     0.4805     0.4626
A_1     C     0.6129     0.2284     0.7793
A_3     C     0.2879     0.3278     0.7176
A_3     C     0.3795     0.3823     0.4357
A_0     C     0.067     0.2097     0.9417
A_3     C     0.844     0.5666     0.6367
A_3     C     0.7558     0.6417     0.4692
A_0     C     0.6045     0.5905     0.8303
A_3     C     0.231     0.0226     0.5813
A_0     C     0.4279     0.3223     0.3997
A_2     C     0.7335     0.3064     0.3188
A_3     C     0.5092     0.7023     0.1043
A_2     C     0.0284     0.3401     0.0584
A_3     C     0.9404     0.7207     0.1589
A_2     C     0.5771     0.4228     0.5997
A_1     C     0.4283     0.7694     0.5915
A_2     C     0.8013     0.2747     0.7561
A_0     C     0.179     0.6656     0.163
A_2     C     0.4279     0.884     0.7689
A_1     C     0.0105     0.4081     0.2764
A_2     C     0.1612     0.9372     0.6224
A_2     C     0.6573     0.6359     0.2856
A_3     C     0.0852     0.0405     0.3815
A_2     C     0.8599     0.8494     0.5467
A_1     C     0.0333     0.5833     0.3675
A_1     C     0.9681     0.1335     0.8087
A_0     C     0.8975     0.2811     0.3099
A_1     C     0.9739     0.8391     0.7328
A_0     C     0.699     0.1113     0.3947
A_3     C     0.2283     0.1717     0.4565
A_2     C     0.8846     0.6446     0.277
A_2     C     0.7846     0.6757     0.0735
A_0     C     0.2634     0.1337     0.0565
A_1     C     0.9105     0.144     0.5378
A_2     C     0.8508     0.6391     0.9291
A_1     C     0.9953     0.8152     0.0658
A_0     C     0.6229     0.4432     0.3512
A_0     C     0.2848     0.4735     0.8567
A_2     C     0.1832     0.0556     0.6476
A_2     C     0.5907     0.4689     0.409
A_1     C     0.1781     0.8069     0.2445
A_2     C     0.4711     0.2797     0.1606
A_0     C     0.9302     0.7267     0.7739
A_0     C     0.1663     0.4761     0.7767
A_1     C     0.6651     0.944     0.2771
A_3     C     0.8887     0.5329     0.1112
A_2     C     0.0919     0.7876     0.3067
A_1     C     0.1431     0.3337     0.0994
A_3     C     0.4991     0.8805     0.6636
A_1     C     0.8637     0.5451     0.2707
A_0     C     0.3867     0.0596     0.6025
A_1     C     0.2244     0.0792     0.8441
A_1     C     0.188     0.4519     0.802
A_3     C     0.9703     0.4494     0.3629
A_3     C     0.8744     0.3907     0.3102
A_0     C     0.7936     0.7097     0.6424
A_0     C     0.9447     0.2497     0.6557
A_1     C     0.0316     0.5836     0.8164
A_3     C     0.9425     0.504     0.5908
A_1     C     0.7424     0.9106     0.514
A_3     C     0.8916     0.3012     0.262
A_0     C     0.2989     0.4827     0.5005
A_3     C     0.9811     0.9796     0.8657
A_3     C     0.6187     0.4194     0.4925
A_1     C     0.9299     0.121     0.6777
A_1     C     0.8952     0.0266     0.6854
A_1     C     0.7136     0.4543     0.4864
A_1     C     0.7423     0.944     0.56
A_1     C     0.0835     0.4552     0.245
A_0     C     0.1757     0.5503     0.1261
A_2     C     0.6092     0.5324     0.2635
A_3     C     0.7412     0.4237     0.6565
A_1     C     0.9164     0.1248     0.734
A_3     C     0.1434     0.5681     0.8804
A_1     C     0.4343     0.1647     0.7378
A_1     C     0.4168     0.0202     0.7368
A_1     C     0.7798     0.9975     0.2435
A_2     C     0.7415     0.5699     0.9257
A_2     C     0.7039     0.3737     0.1312
A_2     C     0.7241     0.5557     0.1377
A_0     C     0.0417     0.0368     0.6402
A_2     C     0.5824     0.7764     0.7719
A_0     C     0.8404     0.2923     0.8116
A_0     C     0.2228     0.8768     0.0725
A_3     C     0.3438     0.5868     0.1709
A_2     C     0.1315     0.479     0.0783
A_3     C     0.7175     0.3487     0.7991
A_3     C     0.4062     0.4737     0.0928
A_1     C     0.1897     0.6172     0.3492
A_1     C     0.6125     0.7646     0.9085
A_1     C     0.7097     0.0384     0.4745
A_1     C     0.472     0.096     0.6768
A_1     C     0.1189     0.7633     0.4512
A_1     C     0.6797     0.4836     0.9119
A_2     C     0.2093     0.0057     0.6168
A_3     C     0.3553     0.0597     0.0193
A_1     C     0.0474     0.4747     0.2791
A_2     C     0.2183     0.9401     0.0914
A_0     C     0.3483     0.4522     0.4464
A_0     C     0.8408     0.4324     0.3879
A_1     C     0.7093     0.7875     0.2776
A_2     C     0.7972     0.6537     0.724
A_1     C     0.8456     0.71     0.8116
A_3     C     0.0287     0.8924     0.7816
A_3     C     0.7601     0.8546     0.6819
A_2     C     0.2923     0.8431     0.7387
A_1     C     0.2316     0.922     0.2522
A_2     C     0.0287     0.1012     0.2673
A_0     C     0.661     0.0239     0.6303
A_3     C     0.4646     0.754     0.1242
A_1     C     0.9933     0.5786     0.1907
A_2     C     0.8533     0.3102     0.8847
A_0     C     0.5343     0.685     0.0291
A_1     C     0.7828     0.2746     0.0553
A_3     C     0.4603     0.5042     0.1291
A_1     C     0.5311     0.2563     0.4256
A_0     C     0.1619     0.8274     0.1966
A_2     C     0.313     0.9381     0.0457
A_1     C     0.5692     0.172     0.8032
A_1     C     0.8072     0.3366     0.9429
A_0     C     0.0031     0.9623     0.5788
A_0     C     0.4735     0.0157     0.7087
A_3     C     0.45     0.9454     0.7947
A_0     C     0.824     0.4759     0.8606
A_1     C     0.9588     0.8205     0.4566
A_3     C     0.3365     0.4298     0.9067
A_0     C     0.4667     0.4166     0.8964
A_1     C     0.7961     0.6864     0.6926
A_0     C     0.161     0.1704     0.2999
A_2     C     0.8247     0.3469     0.6739
A_1     C     0.6889     0.5963     0.7101
A_0     C     0.2529     0.3384     0.9676
A_3     C     0.89     0.7246     0.8783
A_2     C     0.3614     0.6284     0.4085
A_2     C     0.3648     0.3063     0.1769
A_0     C     0.7566     0.576     0.7195
A_1     C     0.3876     0.0647     0.9559
A_2     C     0.4683     0.0399     0.0168
A_1     C     0.5607     0.8035     0.1169
A_3     C     0.6499     0.5287     0.0324
A_2     C     0.8026     0.6706     0.7524
A_0     C     0.9447     0.8989     0.3828
A_0     C     0.6134     0.596     0.5201
A_2     C     0.7791     0.6717     0.5479
A_2     C     0.3242     0.58     0.2395
A_1     C     0.9867     0.1811     0.8117
A_0     C     0.8799     0.2135     0.8357
A_2     C     0.198     0.601     0.9392
A_3     C     0.6405     0.1459     0.2177
A_2     C     0.0211     0.918     0.2806
A_1     C     0.8586     0.0613     0.9491
A_3     C     0.8515     0.1474     0.643
A_3     C     0.9784     0.0864     0.4785
A_0     C     0.7959     0.3388     0.2265
A_1     C     0.5545     0.3345     0.7668
A_3     C     0.1014     0.0426     0.9487
A_1     C     0.1318     0.2018     0.2691
A_0     C     0.7441     0.0629     0.5257
A_0     C     0.5546     0.846     0.536
A_2     C     0.7329     0.039     0.157
A_0     C     0.4835     0.3895     0.5787
A_3     C     0.0903     0.0165     0.0636
A_0     C     0.6201     0.0606     0.816
A_3     C     0.5393     0.7554     0.4282
A_0     C     0.0342     0.47     0.6172
A_1     C     0.6446     0.8025     0.1162
A_2     C     0.2722     0.5708     0.9067
A_2     C     0.2831     0.6075     0.9912
A_1     C     0.5493     0.866     0.947
A_3     C     0.7298     0.073     0.1078
A_2     C     0.047     0.7785     0.8068
A_1     C     0.7728     0.1106     0.6608
A_0     C     0.6398     0.0199     0.3775
A_3     C     0.0941     0.6578     0.5856
A_3     C     0.0101     0.1757     0.3812
A_0     C     0.67     0.4103     0.9713
A_3     C     0.0446     0.8745     0.4566
A_0     C     0.4788     0.9125     0.778
A_2     C     0.6781     0.6075     0.0938
A_1     C     0.4996     0.1736     0.2115
A_1     C     0.086     0.361     0.1729
A_2     C     0.157     0.638     0.6547
A_1     C     0.1546     0.108     0.0504
A_3     C     0.2678     0.9813     0.6232
A_0     C     0.7274     0.2797     0.3771
A_2     C     0.2069     0.6105     0.8819
A_3     C     0.2031     0.8565     0.5265
A_2     C     0.9875     0.844     0.3346
A_3     C     0.3529     0.7904     0.8158
A_3     C     0.5881     0.8107     0.8468
A_2     C     0.0738     0.0746     0.1919
A_0     C     0.8711     0.3243     0.4684
A_0     C     0.5207     0.7872     0.3274
A_1     C     0.3125     0.4927     0.7629
A_2     C     0.5422     0.5835     0.1202
A_0     C     0.5603     0.8174     0.9847
A_2     C     0.6033     0.7458     0.8522
A_3     C     0.7957     0.5406     0.1281
A_2     C     0.7663     0.6075     0.2011
A_3     C     0.9448     0.6458     0.1958
A_3     C     0.5082     0.5571     0.8434
A_2     C     0.1675     0.4509     0.9206
A_3     C     0.1414     0.2925     0.0312
A_2     C     0.102     0.3446     0.0165
A_0     C     0.5797     0.8855     0.8461
A_0     C     0.2082     0.424     0.5
A_2     C     0.3339     0.6561     0.9713
A_0     C     0.1703     0.6059     0.8255
A_0     C     0.9104     0.1467     0.2752
A_3     C     0.107     0.3151     0.8357
A_2     C     0.424     0.3621     0.5627
A_3     C     0.5124     0.6758     0.1228
A_1     C     0.0592     0.0322     0.6171
A_0     C     0.8936     0.0683     0.1135
A_0     C     0.6562     0.7746     0.313
A_2     C     0.8413     0.2913     0.9983
A_0     C     0.0145     0.5653     0.2502
A_2     C     0.3989     0.2132     0.4251
A_2     C     0.868     0.1122     0.5993
A_2     C     0.324     0.2812     0.3977
A_1     C     0.364     0.296     0.3198
A_0     C     0.5732     0.1481     0.1091
A_2     C     0.887     0.2425     0.1645
A_2     C     0.904     0.5966     0.6337
A_2     C     0.4348     0.9343     0.9323
A_2     C     0.5592     0.3943     0.5454
A_2     C     0.652     0.0849     0.9006
A_3     C     0.7992     0.6347     0.2399
A_1     C     0.713     0.8414     0.2059
A_0     C     0.8253     0.9159     0.5275
A_0     C     0.9882     0.3614     0.5669
A_3     C     0.5718     0.1963     0.1048
A_1     C     0.7159     0.5331     0.5983
A_0     C     0.1787     0.2888     0.2932
A_2     C     0.2637     0.2265     0.2876
A_0     C     0.9129     0.6351     0.2435
A_0     C     0.3682     0.2473     0.2652
A_3     C     0.472     0.4558     0.8851
A_1     C     0.8489     0.691     0.7645
A_0     C     0.7278     0.7696     0.0422
A_0     C     0.9337     0.1647     0.3457
A_1     C     0.8819     0.2882     0.0036
A_3     C     0.9477     0.0193     0.3232
A_3     C     0.6129     0.761     0.292
A_3     C     0.5401     0.0095     0.8706
A_3     C     0.1732     0.2063     0.9951
A_3     C     0.3099     0.568     0.9457
A_3     C     0.9568     0.1343     0.1656
A_0     C     0.2472     0.012     0.4046
A_1     C     0.0939     0.4476     0.7224
A_0     C     0.5649     0.0823     0.2235
A_0     C     0.9111     0.7901     0.4911
A_0     C     0.2369     0.565     0.5151
A_1     C     0.587     0.8376     0.3127
A_0     C     0.7581     0.7486     0.4881
A_2     C     0.3076     0.8971     0.1842
A_3     C     0.315     0.4517     0.7069
A_0     C     0.8886     0.7591     0.0874
A_3     C     0.7989     0.0543     0.6241
A_1     C     0.4508     0.5445     0.3698
A_3     C     0.9309     0.259     0.7976
A_1     C     0.8257     0.8519     0.4092
A_0     C     0.1855     0.696     0.8422
A_0     C     0.5187     0.049     0.6184
A_2     C     0.0524     0.9999     0.1545
A_3     C     0.8267     0.9007     0.4724
A_2     C     0.0032     0.7353     0.595
A_0     C     0.7888     0.5994     0.0215
A_0     C     0.514     0.1274     0.3519
A_3     C     0.2613     0.1592     0.3104
A_2     C     0.5835     0.1821     0.4932
A_0     C     0.2766     0.3496     0.6335
A_3     C     0.0736     0.9325     0.8547
A_1     C     0.8231     0.6686     0.671
A_2     C     0.6175     0.5147     0.8733
A_3     C     0.5802     0.9223     0.9956
A_3     C     0.5131     0.7833     0.0822
A_1     C     0.2894     0.0322     0.7946
A_1     C     0.6637     0.1898     0.4874
A_0     C     0.051     0.7361     0.8138
A_3     C     0.463     0.6394     0.3472
A_3     C     0.0247     0.2114     0.7121
A_3     C     0.6571     0.4189     0.355
A_3     C     0.43     0.9487     0.6198
A_2     C     0.4165     0.8253     0.0811
A_0     C     0.0908     0.3257     0.9155
A_3     C     0.6431     0.2055     0.7222
A_0     C     0.4559     0.1181     0.1582
A_2     C     0.7574     0.2674     0.6266
A_0     C     0.1183     0.6499     0.3757
A_2     C     0.9615     0.9518     0.4665
A_0     C     0.3345     0.6322     0.0927
A_2     C     0.1134     0.1218     0.603
A_2     C     0.9683     0.9386     0.9146
A_3     C     0.882     0.9588     0.3105
A_1     C     0.5777     0.9339     0.2362
A_2     C     0.4088     0.8299     0.9699
A_3     C     0.5891     0.7821     0.8646
A_3     C     0.686     0.8915     0.5218
A_1     C     0.0388     0.441     0.5243
A_0     C     0.7209     0.9143     0.7396
A_1     C     0.1231     0.3924     0.3256
A_1     C     0.5436     0.8913     0.787
A_1     C     0.1109     0.3413     0.103
A_2     C     0.4573     0.237     0.3508
A_1     C     0.9584     0.031     0.9004
A_3     C     0.6047     0.0102     0.0107
A_3     C     0.8396     0.8096     0.3774
A_3     C     0.7831     0.0292     0.7953
A_2     C     0.2288     0.3001     0.0566
A_2     C     0.2772     0.19     0.0235
A_2     C     0.8995     0.5817     0.5824
A_1     C     0.9941     0.9289     0.8025
A_3     C     0.486     0.9939     0.8601
A_0     C     0.1656     0.2185     0.3522
A_0     C     0.9553     0.2109     0.6712
A_3     C     0.9565     0.3632     0.5387
A_2     C     0.33     0.6281     0.4668
A_0     C     0.4461     0.3218     0.4157
A_3     C     0.0302     0.2921     0.0052
A_1     C     0.1902     0.6384     0.5709
A_0     C     0.3878     0.1634     0.1154
A_1     C     0.0177     0.6741     0.3255
A_0     C     0.1968     0.6014     0.1988
A_1     C     0.2985     0.5981     0.3468
A_0     C     0.6334     0.8253     0.4196
A_0     C     0.3428     0.8105     0.3686
A_0     C     0.4703     0.766     0.9388
A_0     C     0.4457     0.2651     0.4737
A_2     C     0.81     0.27     0.7305
A_0     C     0.0134     0.2908     0.1018
A_3     C     0.6775     0.2955     0.6246
A_2     C     0.1494     0.6392     0.5018
A_3     C     0.4529     0.3697     0.3198
A_1     C     0.0604     0.66     0.7334
A_1     C     0.5846     0.6374     0.0396
A_2     C     0.0682     0.1925     0.7656
A_3     C     0.3909     0.2904     0.9117
A_1     C     0.253     0.974     0.1717
A_2     C     0.8793     0.7391     0.0798
A_3     C     0.0436     0.0576     0.3237
A_2     C     0.7216     0.8545     0.3453
A_0     C     0.0589     0.1937     0.2177
A_0     C     0.9896     0.179     0.8244
A_0     C     0.4593     0.576     0.3778
A_2     C     0.5423     0.1033     0.6361
A_3     C     0.5873     0.1871     0.4424
A_3     C     0.3846     0.3346     0.3697
A_0     C     0.5461     0.9529     0.3701
A_0     C     0.9082     0.435     0.0961
A_2     C     0.9669     0.1964     0.4435
A_2     C     0.3963     0.2815     0.9103
A_1     C     0.3772     0.4987     0.2661
A_1     C     0.1016     0.7457     0.2244
A_2     C     0.5026     0.8059     0.8825
A_3     C     0.1526     0.0444     0.8217
A_1     C     0.9468     0.2585     0.7523
A_1     C     0.9354     0.3918     0.5825
A_1     C     0.5055     0.004     0.302
A_2     C     0.0576     0.134     0.7749
A_0     C     0.7526     0.0446     0.3288
A_3     C     0.7097     0.4317     0.7643
A_3     C     0.5649     0.8458     0.3531
A_0     C     0.528     0.1663     0.4133
A_3     C     0.9203     0.2367     0.6805
A_2     C     0.856     0.3506     0.6339
A_0     C     0.5217     0.6821     0.3591
A_1     C     0.0529     0.1674     0.719
A_1     C     0.9154     0.6807     0.098
A_2     C     0.686     0.1153     0.3224
A_1     C     0.2892     0.7706     0.1485
A_0     C     0.145     0.0252     0.6579
A_0     C     0.8094     0.8889     0.5184
A_2     C     0.4804     0.6466     0.3823
A_0     C     0.2447     0.6234     0.5
A_2     C     0.4125     0.0807     0.109
A_2     C     0.9397     0.5062     0.9065
A_3     C     0.7586     0.637     0.0322
A_3     C     0.1762     0.037     0.1798
A_0     C     0.7432     0.391     0.0374
A_3     C     0.7228     0.3346     0.6178
A_0     C     0.1617     0.2382     0.9775
A_3     C     0.387     0.6969     0.0229
A_0     C     0.7004     0.1596     0.6255
A_3     C     0.5795     0.0043     0.988
A_2     C     0.0745     0.3441     0.9473
A_3     C     0.2426     0.2618     0.5247
A_1     C     0.0534     0.1825     0.5907
A_3     C     0.235     0.3152     0.7455
A_0     C     0.2646     0.0395     0.1097
A_3     C     0.7546     0.3468     0.2957
A_0     C     0.1108     0.7201     0.9596
A_3     C     0.4778     0.8145     0.1082
A_2     C     0.0481     0.9042     0.1054
A_1     C     0.0918     0.8934     0.7092
A_0     C     0.6851     0.1848     0.6977
A_2     C     0.5285     0.319     0.379
A_2     C     0.897     0.2188     0.2235
A_1     C     0.2844     0.148     0.0826
A_1     C     0.1565     0.6532     0.7073
A_3     C     0.7943     0.0727     0.9567
A_2     C     0.3468     0.1715     0.0152
A_1     C     0.4654     0.7947     0.8595
A_1     C     0.3187     0.1829     0.455
A_2     C     0.709     0.9023     0.1092
A_0     C     0.8697     0.6351     0.7155
A_0     C     0.2967     0.8836     0.7546
A_2     C     0.6846     0.476     0.2632
A_1     C     0.2201     0.2031     0.2834
A_2     C     0.2382     0.0939     0.0834
A_0     C     0.3661     0.3592     0.6955
A_0     C     0.1835     0.1788     0.4177
A_3     C     0.0268     0.2886     0.1971
A_1     C     0.8574     0.772     0.7775
A_3     C     0.1308     0.0008     0.3366
A_0     C     0.2357     0.721     0.092
A_3     C     0.9637     0.1996     0.935
A_2     C     0.2051     0.5932     0.078
A_3     C     0.9142     0.366     0.5536
A_1     C     0.9083     0.1605     0.613
A_2     C     0.7829     0.6593     0.7637
A_1     C     0.0909     0.2686     0.1117
A_0     C     0.1298     0.5754     0.7461
A_3     C     0.0231     0.7314     0.011
A_1     C     0.5273     0.7589     0.295
A_0     C     0.1237     0.643     0.0748
A_2     C     0.2638     0.4076     0.3432
A_1     C     0.9957     0.3391     0.6568
A_1     C     0.8033     0.0178     0.0273
A_3     C     0.3399     0.2817     0.3562
A_0     C     0.8154     0.1474     0.7487
A_0     C     0.2924     0.7702     0.9056
A_3     C     0.3692     0.13     0.8898
A_2     C     0.7039     0.6874     0.21
A_0     C     0.8259     0.9583     0.1057
A_0     C     0.4304     0.8552     0.0509
A_2     C     0.0184     0.4216     0.9296
A_0     C     0.6039     0.0128     0.3523
A_2     C     0.3919     0.5857     0.6633
A_0     C     0.2143     0.6802     0.2458
A_1     C     0.5852     0.4247     0.5744
A_3     C     0.2553     0.145     0.9359
A_1     C     0.574     0.4403     0.0078
A_0     C     0.9443     0.076     0.7246
A_0     C     0.9104     0.806     0.8556
A_2     C     0.3061     0.3857     0.1696
A_1     C     0.1013     0.8151     0.8048
A_1     C     0.2321     0.2457     0.4689
A_3     C     0.9995     0.7641     0.2113
A_2     C     0.3824     0.1447     0.0777
A_1     C     0.5624     0.4048     0.6334
A_0     C     0.529     0.2388     0.595
A_0     C     0.2266     0.9985     0.336
A_0     C     0.414     0.0924     0.2027
A_3     C     0.063     0.5056     0.308
A_1     C     0.3962     0.9393     0.1379
A_2     C     0.2426     0.5331     0.7902
A_3     C     0.4719     0.4226     0.1544
A_2     C     0.3012     0.568     0.1797
A_1     C     0.506     0.8615     0.0718
A_1     C     0.4855     0.2187     0.7346
A_2     C     0.1963     0.0051     0.7505
A_3     C     0.1542     0.3214     0.9293
A_2     C     0.9539     0.6191     0.9089
A_3     C     0.9258     0.698     0.0952
A_3     C     0.9116     0.3911     0.6246
A_0     C     0.9885     0.753     0.7563
A_3     C     0.3213     0.5889     0.427
A_2     C     0.936     0.8893     0.8695
A_2     C     0.6987     0.2356     0.9127
A_2     C     0.7387     0.4794     0.5692
A_0     C     0.6312     0.0563     0.1121
A_0     C     0.924     0.8726     0.4415
A_1     C     0.0216     0.0112     0.728
A_3     C     0.9117     0.335     0.257
A_2     C     0.5916     0.9033     0.5375
A_2     C     0.0565     0.6959     0.8818
A_1     C     0.0542     0.8007     0.1275
A_3     C     0.6299     0.1092     0.6371
A_1     C     0.729     0.2697     0.591
A_0     C     0.3051     0.282     0.3998
A_0     C     0.1048     0.8142     0.6625
A_3     C     0.2486     0.24     0.5701
A_2     C     0.4889     0.2354     0.3282
A_2     C     0.4197     0.0296     0.713
A_2     C     0.8939     0.4899     0.7153
A_0     C     0.8712     0.261     0.7585
A_2     C     0.8365     0.8959     0.3031
A_0     C     0.5713     0.7829     0.1691
A_2     C     0.6166     0.7951     0.6102
A_3     C     0.4179     0.9391     0.0181
A_1     C     0.3746     0.6358     0.1776
A_1     C     0.6163     0.5521     0.5754
A_1     C     0.4133     0.2405     0.8476
A_1     C     0.9679     0.7597     0.564
A_0     C     0.6365     0.6333     0.6227
A_1     C     0.1926     0.9373     0.3075
A_0     C     0.5384     0.3029     0.5605
A_3     C     0.0387     0.7211     0.5161
A_1     C     0.6889     0.4362     0.3599
A_3     C     0.4424     0.5083     0.3821
A_2     C     0.811     0.9724     0.9265
A_3     C     0.1588     0.8847     0.7423
A_2     C     0.0583     0.6687     0.2077
A_1     C     0.3601     0.9975     0.338
A_1     C     0.914     0.2423     0.2006
A_0     C     0.8715     0.885     0.5585
A_0     C     0.9312     0.396     0.7324
A_0     C     0.6866     0.5029     0.452
A_3     C     0.4215     0.8788     0.6495
A_3     C     0.1214     0.5087     0.3698
A_0     C     0.5829     0.7792     0.8622
A_1     C     0.2266     0.9086     0.5238
A_2     C     0.7004     0.3257     0.791
A_0     C     0.2158     0.0919     0.6643
A_1     C     0.9074     0.2047     0.382
A_0     C     0.9455     0.0847     0.06
A_0     C     0.7062     0.222     0.7114
A_0     C     0.9769     0.2673     0.802
A_2     C     0.4061     0.15     0.0871
A_2     C     0.9661     0.1065     0.2232
A_1     C     0.9925     0.0479     0.9405
A_1     C     0.9388     0.2577     0.94
A_3     C     0.3395     0.3233     0.8088
A_3     C     0.8608     0.8958     0.507
A_0     C     0.6096     0.6052     0.0027
A_2     C     0.634     0.4825     0.6167
A_2     C     0.6852     0.5433     0.5211
A_3     C     0.3213     0.6816     0.4245
A_3     C     0.0948     0.2629     0.5776
A_3     C     0.4865     0.0535     0.2862
A_2     C     0.6594     0.9018     0.092
A_0     C     0.0234     0.4289     0.0603
A_2     C     0.9041     0.8783     0.3292
A_1     C     0.19     0.6754     0.3994
A_0     C     0.1033     0.171     0.9119
A_0     C     0.5887     0.7046     0.3976
A_2     C     0.5245     0.3245     0.5833
A_3     C     0.2786     0.8483     0.6462
A_2     C     0.9286     0.9331     0.4264
A_3     C     0.7962     0.5051     0.2573
A_1     C     0.7134     0.044     0.4584
A_3     C     0.7758     0.4546     0.0066
A_1     C     0.08     0.3203     0.8307
A_3     C     0.4593     0.9292     0.0148
A_0     C     0.3711     0.3021     0.4611
A_3     C     0.1898     0.0705     0.5786
A_0     C     0.0216     0.3495     0.0382
A_0     C     0.2172     0.3486     0.1731
A_3     C     0.7777     0.1063     0.5009
A_2     C     0.5146     0.7801     0.7456
A_0     C     0.2253     0.0822     0.6336
A_0     C     0.6742     0.0585     0.0427
A_2     C     0.5393     0.4762     0.3801
A_1     C     0.5033     0.8425     0.2768
A_0     C     0.8061     0.1077     0.1728
A_0     C     0.5755     0.4553     0.8183
A_1     C     0.5923     0.4935     0.1601
A_2     C     0.5353     0.4278     0.0875
A_2     C     0.7842     0.5693     0.2512
A_0     C     0.7466     0.9979     0.112
A_3     C     0.125     0.0385     0.5441
A_1     C     0.4953     0.7302     0.1523
A_2     C     0.6415     0.0201     0.4617
A_0     C     0.7452     0.0863     0.9482
A_1     C     0.9897     0.0336     0.3441
A_1     C     0.8036     0.9288     0.0369
A_3     C     0.1714     0.8956     0.2223
A_3     C     0.1859     0.2642     0.5104
A_0     C     0.1715     0.9233     0.9374
A_3     C     0.8289     0.2815     0.6516
A_0     C     0.6163     0.7235     0.0875
A_3     C     0.3634     0.9481     0.4586
A_0     C     0.6598     0.5168     0.138
A_2     C     0.208     0.0069     0.2748
A_1     C     0.3272     0.4253     0.795
A_1     C     0.3461     0.4731     0.0338
A_1     C     0.7341     0.8499     0.3213
A_1     C     0.1336     0.2983     0.1694
A_0     C     0.2859     0.2676     0.8818
A_1     C     0.5058     0.6939     0.4676
A_1     C     0.4959     0.0788     0.9298
A_3     C     0.3934     0.1105     0.8666
A_3     C     0.1997     0.1859     0.7446
A_0     C     0.6617     0.5846     0.4225
A_0     C     0.8943     0.4458     0.5397
A_0     C     0.4841     0.4305     0.9543
A_1     C     0.541     0.1978     0.6144
A_0     C     0.2076     0.6259     0.948
A_3     C     0.6969     0.8932     0.5686
A_0     C     0.2335     0.4221     0.2451
A_0     C     0.3162     0.1332     0.5792
A_1     C     0.5413     0.6007     0.8506
A_3     C     0.3781     0.5857     0.3551
A_1     C     0.1121     0.3181     0.8407
A_1     C     0.737     0.8523     0.8161
A_2     C     0.3338     0.8829     0.1364
A_1     C     0.6769     0.2683     0.6563
A_1     C     0.4181     0.0585     0.2634
A_3     C     0.1192     0.6368     0.0685
A_2     C     0.2582     0.1378     0.8746
A_2     C     0.4755     0.5415     0.0661
A_0     C     0.4629     0.7271     0.5965
A_1     C     0.0882     0.7232     0.9023
A_2     C     0.1674     0.8762     0.8544
A_1     C     0.4539     0.7399     0.6831
A_0     C     0.8265     0.9062     0.4243
A_2     C     0.3307     0.1803     0.6629
A_1     C     0.5432     0.9032     0.728
A_1     C     0.2618     0.9999     0.1134
A_3     C     0.8933     0.1799     0.6342
A_2     C     0.9203     0.5121     0.1224
A_3     C     0.7606     0.1265     0.8127
A_0     C     0.9935     0.0202     0.7391
A_1     C     0.0964     0.1286     0.8654
A_2     C     0.9768     0.8251     0.4868
A_2     C     0.2466     0.0766     0.9037
A_1     C     0.5902     0.105     0.9352
A_1     C     0.9586     0.2577     0.6364
A_1     C     0.1252     0.4786     0.5332
A_0     C     0.1834     0.3698     0.9526
A_1     C     0.0055     0.8848     0.6245
A_0     C     0.8125     0.1836     0.4362
A_3     C     0.4432     0.8206     0.4174
A_0     C     0.4367     0.5235     0.3434
A_1     C     0.6959     0.2631     0.0626
A_1     C     0.2959     0.275     0.5634
A_1     C     0.237     0.2883     0.3127
A_0     C     0.3837     0.6916     0.6107
A_2     C     0.9727     0.5363     0.6712
A_2     C     0.5085     0.1209     0.7884
A_3     C     0.8905     0.8563     0.9472
A_3     C     0.769     0.1211     0.032
A_3     C     0.4972     0.1064     0.9756
A_1     C     0.4499     0.2578     0.747
A_2     C     0.2329     0.3088     0.323
A_1     C     0.7856     0.9041     0.8074
A_3     C     0.4473     0.2762     0.1264
A_0     C     0.5316     0.0462     0.7429
A_3     C     0.9187     0.5048     0.0106
A_2     C     0.5222     0.7746     0.2143
A_0     C     0.3013     0.3436     0.8303
A_0     C     0.4896     0.0494     0.3505
A_3     C     0.1407     0.9317     0.9173
A_3     C     0.5983     0.5254     0.1981
A_0     C     0.873     0.2693     0.0288
A_1     C     0.6349     0.5106     0.6506
A_3     C     0.332     0.9756     0.9544
A_0     C     0.3603     0.4798     0.8479
A_1     C     0.6412     0.5221     0.4565
A_0     C     0.4996     0.7688     0.044
A_3     C     0.2279     0.7677     0.5742
A_0     C     0.1746     0.2193     0.5972
A_0     C     0.6438     0.371     0.924
A_3     C     0.2063     0.774     0.6013
A_2     C     0.1035     0.1156     0.0154
A_1     C     0.273     0.2134     0.6208
A_3     C     0.2281     0.1836     0.0629
A_1     C     0.9774     0.7684     0.7749
A_1     C     0.7833     0.8777     0.2614
A_3     C     0.3324     0.4781     0.6652
A_1     C     0.5541     0.7534     0.0572
A_1     C     0.4844     0.5899     0.047
A_3     C     0.0295     0.2114     0.6428
A_3     C     0.6736     0.6366     0.1962
A_2     C     0.8494     0.8015     0.2143
A_1     C     0.0859     0.3772     0.8033
A_0     C     0.5857     0.585     0.578
A_1     C     0.8114     0.6439     0.5643
A_2     C     0.7146     0.4762     0.4642
A_1     C     0.8156     0.3671     0.3229
A_0     C     0.5704     0.4565     0.2947
A_1     C     0.1076     0.8902     0.153
A_0     C     0.1211     0.2965     0.1281
A_2     C     0.2609     0.3391     0.8852
A_1     C     0.1599     0.1129     0.8943
A_1     C     0.3071     0.1833     0.3372
A_3     C     0.447     0.1021     0.4338
A_3     C     0.5856     0.971     0.1929
A_1     C     0.0459     0.7404     0.358
A_3     C     0.9111     0.9496     0.795
A_3     C     0.937     0.0696     0.8095
A_2     C     0.484     0.4998     0.9424
A_0     C     0.1416     0.6452     0.7844
A_2     C     0.241     0.8046     0.9624
A_3     C     0.7013     0.9926     0.2234
A_1     C     0.113     0.9754     0.2261
A_1     C     0.6154     0.866     0.1947
A_1     C     0.4228     0.4956     0.5167
A_3     C     0.4095     0.4952     0.1584
A_1     C     0.6823     0.6399     0.9235
A_3     C     0.0144     0.3687     0.0024
A_2     C     0.9748     0.9853     0.4832
A_0     C     0.7435     0.6213     0.7725
A_3     C     0.4579     0.3799     0.9091
A_0     C     0.93     0.4856     0.4827
A_0     C     0.3817     0.5212     0.9232
A_3     C     0.343     0.3127     0.9013
A_3     C     0.4526     0.1023     0.009
A_3     C     0.0615     0.7448     0.3862
A_1     C     0.6059     0.7512     0.2015
A_3     C     0.4846     0.9949     0.9139
A_2     C     0.0103     0.9898     0.2604
A_1     C     0.7798     0.5349     0.0827
A_1     C     0.7305     0.1403     0.5977
A_0     C     0.4756     0.4989     0.7795
A_3     C     0.4922     0.2343     0.0125
A_2     C     0.4874     0.1187     0.3519
A_1     C     0.9511     0.4914     0.3968
A_1     C     0.1246     0.3751     0.451
A_3     C     0.6502     0.1228     0.9304
A_3     C     0.1265     0.3589     0.7889
A_3     C     0.7155     0.1566     0.5333
A_2     C     0.5675     0.3355     0.0956
A_2     C     0.5233     0.764     0.1031
A_3     C     0.1165     0.6516     0.8167
A_2     C     0.3365     0.1915     0.9087
A_0     C     0.5163     0.1736     0.462
A_2     C     0.9387     0.0681     0.9266
A_3     C     0.6537     0.5162     0.4858
A_1     C     0.9025     0.1414     0.6822
A_2     C     0.0098     0.3272     0.4408
A_1     C     0.8726     0.4564     0.0491
A_1     C     0.3723     0.2168     0.9777
A_0     C     0.8519     0.5494     0.3877
A_0     C     0.3639     0.1102     0.9726
A_0     C     0.1236     0.5913     0.4477
A_3     C     0.4677     0.0328     0.9549
A_3     C     0.4729     0.224     0.7025
A_1     C     0.29     0.8155     0.5435
A_2     C     0.1387     0.3103     0.0055
A_2     C     0.9469     0.5187     0.1446
A_2     C     0.6322     0.5928     0.5422
A_2     C     0.1981     0.2901     0.0107
A_1     C     0.8681     0.1666     0.9075
A_3     C     0.0375     0.7434     0.2202
A_2     C     0.7502     0.1368     0.2149
A_3     C     0.6447     0.8921     0.7297
A_2     C     0.4822     0.484     0.8186
A_2     C     0.669     0.6454     0.1202
A_0     C     0.0708     0.8556     0.3336
A_2     C     0.0767     0.9772     0.8814
A_1     C     0.813     0.0134     0.6661
A_0     C     0.0542     0.0359     0.6407
A_3     C     0.3302     0.137     0.1214
A_2     C     0.9231     0.6573     0.0176
A_2     C     0.0264     0.2176     0.2217
A_0     C     0.6433     0.3722     0.0262
A_1     C     0.9779     0.7246     0.5832
A_0     C     0.0662     0.3445     0.7913
A_2     C     0.2094     0.2621     0.0202
A_3     C     0.9048     0.4035     0.727
A_2     C     0.4095     0.6937     0.726
A_0     C     0.83     0.7539     0.2665
A_2     C     0.7205     0.9547     0.2176
A_2     C     0.4801     0.5663     0.6153
A_1     C     0.7161     0.871     0.3077
A_3     C     0.8887     0.4349     0.1027
A_0     C     0.8203     0.9709     0.0339
A_3     C     0.4067     0.569     0.9599
A_2     C     0.3291     0.5423     0.5971
A_1     C     0.0911     0.5858     0.0005
A_0     C     0.0251     0.4996     0.6003
A_1     C     0.1383     0.7095     0.5447
A_1     C     0.2683     0.6697     0.8185
A_0     C     0.7357     0.0979     0.4802
A_0     C     0.6806     0.1865     0.7153
A_1     C     0.2693     0.1727     0.8528
A_3     C     0.6022     0.8199     0.5137
A_0     C     0.7836     0.7363     0.3213
A_1     C     0.048     0.9481     0.3866
A_1     C     0.4352     0.4894     0.5059
A_1     C     0.963     0.4304     0.98
A_3     C     0.8514     0.5253     0.4851
A_2     C     0.9843     0.3251     0.7945
A_1     C     0.994     0.5085     0.6394
A_0     C     0.7996     0.8759     0.6862
A_0     C     0.4196     0.5687     0.3587
A_0     C     0.7907     0.4689     0.7584
A_3     C     0.9338     0.8254     0.2094
A_2     C     0.7075     0.9832     0.8656
A_1     C     0.9475     0.9414     0.3165
A_3     C     0.2479     0.3533     0.077
A_0     C     0.645     0.7614     0.7127
A_0     C     0.7573     0.767     0.2047
A_0     C     0.0704     0.0194     0.1294
A_3     C     0.1017     0.0284     0.6979
A_2     C     0.0112     0.6212     0.024
A_3     C     0.078     0.5078     0.8531
A_1     C     0.1436     0.9966     0.2141
A_0     C     0.0278     0.5611     0.063
A_3     C     0.1807     0.684     0.5722
A_0     C     0.8888     0.0223     0.7223
A_0     C     0.3406     0.1591     0.8433
