MAT-5

loop_
_symmetry_equiv_pos_as_xyz
  x,y,z
_cell_length_a          38.6303
_cell_length_b          42.7247
_cell_length_c          46.7833
_cell_angle_alpha       90.0000
_cell_angle_beta        90.0000
_cell_angle_gamma       90.0000
loop_
_atom_site_label
_atom_site_type_symbol
_atom_site_fract_x
_atom_site_fract_y
_atom_site_fract_z
A_3     C     0.3377     0.3461     0.3488
A_2     C     0.9147     0.8119     0.9104
A_0     C     0.4802     0.519     0.5742
A_2     C     0.1736     0.9793     0.8991
A_1     C     0.1017     0.8506     0.1528
A_3     C     0.7644     0.5906     0.6215
A_0     C     0.8462     0.9107     0.809
A_3     C     0.7208     0.1492     0.8931
A_0     C     0.1799     0.2196     0.1534
A_2     C     0.7616     0.5704     0.7687
A_3     C     0.2812     0.1171     0.1517
A_3     C     0.8212     0.2565     0.6941
A_0     C     0.6984     0.7132     0.8758
A_2     C     0.7285     0.5812     0.5441
A_2     C     0.7816     0.0081     0.315
A_1     C     0.7546     0.8613     0.7742
A_3     C     0.5554     0.795     0.2599
A_3     C     0.2402     0.7419     0.0778
A_3     C     0.9894     0.8105     0.7195
A_0     C     0.5546     0.6216     0.4051
A_3     C     0.7354     0.8461     0.3804
A_3     C     0.3897     0.9699     0.496
A_2     C     0.943     0.3308     0.8699
A_0     C     0.8099     0.4272     0.5506
A_0     C     0.8601     0.6391     0.7962
A_3     C     0.3327     0.0704     0.8612
A_0     C     0.6917     0.8143     0.6678
A_3     C     0.3857     0.8786     0.0222
A_0     C     0.0103     0.1356     0.6232
A_3     C     0.6788     0.2989     0.1213
A_3     C     0.8253     0.625     0.6544
A_1     C     0.2215     0.264     0.5971
A_2     C     0.6607     0.7684     0.6857
A_3     C     0.6875     0.9834     0.3769
A_3     C     0.3976     0.064     0.9153
A_3     C     0.6542     0.1545     0.0255
A_2     C     0.782     0.4367     0.0431
A_1     C     0.3208     0.1867     0.6411
A_0     C     0.598     0.4662     0.4136
A_3     C     0.0141     0.1871     0.5777
A_1     C     0.0164     0.2869     0.7982
A_3     C     0.0003     0.8581     0.8398
A_0     C     0.6018     0.0691     0.8239
A_0     C     0.2365     0.1327     0.7726
A_3     C     0.587     0.8661     0.9608
A_1     C     0.0586     0.2486     0.4435
A_3     C     0.8878     0.7467     0.8775
A_2     C     0.2157     0.1354     0.7674
A_3     C     0.6553     0.3674     0.2579
A_0     C     0.8217     0.1844     0.2707
A_2     C     0.0294     0.5862     0.7361
A_0     C     0.0293     0.7604     0.9991
A_1     C     0.1279     0.0493     0.6727
A_1     C     0.5789     0.395     0.3821
A_3     C     0.3469     0.6444     0.4668
A_0     C     0.2618     0.9318     0.4643
A_1     C     0.1216     0.949     0.2634
A_0     C     0.9438     0.4966     0.7642
A_2     C     0.9449     0.3107     0.0474
A_0     C     0.023     0.7751     0.6227
A_2     C     0.2336     0.7008     0.726
A_1     C     0.9217     0.7083     0.9436
A_1     C     0.6678     0.3556     0.9223
A_3     C     0.0563     0.5014     0.0425
A_1     C     0.4051     0.6837     0.3455
A_1     C     0.5345     0.7208     0.8041
A_0     C     0.555     0.0729     0.6449
A_3     C     0.9074     0.6343     0.8791
A_0     C     0.2042     0.7314     0.536
A_1     C     0.6321     0.6201     0.2535
A_0     C     0.5619     0.195     0.1955
A_0     C     0.4435     0.7328     0.8741
A_1     C     0.5248     0.6321     0.8488
A_1     C     0.9655     0.4269     0.1161
A_0     C     0.0196     0.9174     0.6923
A_2     C     0.5612     0.6098     0.0031
A_3     C     0.6838     0.8723     0.3085
A_3     C     0.8291     0.1621     0.8252
A_2     C     0.9929     0.9406     0.773
A_2     C     0.2535     0.5388     0.7852
A_3     C     0.5769     0.6131     0.3203
A_2     C     0.9098     0.7984     0.5305
A_1     C     0.3814     0.3236     0.5939
A_0     C     0.5848     0.5205     0.789
A_0     C     0.409     0.916     0.3446
A_0     C     0.4728     0.9858     0.5666
A_0     C     0.2066     0.1519     0.7204
A_1     C     0.5694     0.3541     0.1413
A_1     C     0.6131     0.9619     0.7741
A_1     C     0.3596     0.0409     0.5904
A_2     C     0.3926     0.1691     0.1669
A_0     C     0.6134     0.3345     0.2651
A_0     C     0.2779     0.1996     0.1586
A_0     C     0.7535     0.9076     0.914
A_1     C     0.7465     0.5865     0.5448
A_2     C     0.6549     0.2361     0.6505
A_0     C     0.7046     0.4059     0.5513
A_3     C     0.9353     0.9257     0.9808
A_0     C     0.6816     0.2492     0.7799
A_1     C     0.7356     0.1935     0.1028
A_1     C     0.8522     0.7844     0.9464
A_1     C     0.5729     0.2043     0.5189
A_0     C     0.8392     0.224     0.5858
A_0     C     0.2698     0.3643     0.9926
A_1     C     0.4966     0.7702     0.9838
A_1     C     0.2635     0.0073     0.0597
A_0     C     0.9407     0.157     0.6349
A_3     C     0.4982     0.9978     0.5764
A_0     C     0.5638     0.3833     0.1549
A_3     C     0.1714     0.1785     0.8333
A_3     C     0.1796     0.8417     0.8197
A_3     C     0.9966     0.4909     0.366
A_1     C     0.4851     0.2784     0.2827
A_0     C     0.6053     0.4039     0.9531
A_0     C     0.6508     0.648     0.2467
A_3     C     0.4274     0.9323     0.9559
A_1     C     0.2573     0.0631     0.5642
A_3     C     0.9908     0.367     0.4325
A_3     C     0.3956     0.7509     0.773
A_3     C     0.9233     0.5012     0.5808
A_2     C     0.7641     0.0805     0.8683
A_0     C     0.3344     0.9113     0.5725
A_2     C     0.7245     0.471     0.0614
A_1     C     0.521     0.3759     0.9041
A_2     C     0.7871     0.3827     0.1937
A_0     C     0.5827     0.8034     0.732
A_3     C     0.4052     0.5175     0.0871
A_0     C     0.0125     0.0857     0.543
A_2     C     0.2963     0.6803     0.8792
A_0     C     0.667     0.4792     0.5468
A_2     C     0.1862     0.2378     0.6039
A_3     C     0.8311     0.0575     0.423
A_2     C     0.7848     0.2554     0.4521
A_3     C     0.1298     0.154     0.8444
A_3     C     0.4262     0.0072     0.8204
A_2     C     0.6426     0.527     0.1811
A_1     C     0.9931     0.8002     0.6606
A_0     C     0.2944     0.6284     0.8648
A_1     C     0.3407     0.6663     0.2884
A_2     C     0.2301     0.0728     0.5673
A_3     C     0.7177     0.8638     0.7747
A_2     C     0.0321     0.7664     0.4354
A_2     C     0.535     0.4092     0.1498
A_3     C     0.4407     0.4579     0.3197
A_0     C     0.0005     0.7599     0.5272
A_1     C     0.5768     0.5304     0.1461
A_0     C     0.1683     0.5375     0.5057
A_0     C     0.8036     0.4594     0.9049
A_2     C     0.2519     0.2864     0.195
A_2     C     0.7867     0.2133     0.2637
A_2     C     0.8727     0.6221     0.6292
A_0     C     0.858     0.9978     0.9517
A_1     C     0.8327     0.5634     0.3099
A_0     C     0.5351     0.138     0.0191
A_1     C     0.4207     0.2283     0.2641
A_3     C     0.5369     0.0526     0.417
A_0     C     0.9251     0.1877     0.0643
A_2     C     0.3231     0.0962     0.6577
A_0     C     0.4679     0.4344     0.3773
A_0     C     0.3884     0.5543     0.6611
A_1     C     0.0266     0.8728     0.3174
A_2     C     0.4357     0.9566     0.7502
A_3     C     0.8806     0.2355     0.5623
A_2     C     0.9934     0.8932     0.9945
A_0     C     0.8523     0.9174     0.4679
A_0     C     0.016     0.7451     0.9707
A_1     C     0.3503     0.8889     0.5189
A_0     C     0.5056     0.5389     0.3958
A_1     C     0.8557     0.5941     0.218
A_1     C     0.2789     0.8962     0.3022
A_1     C     0.2033     0.1897     0.257
A_3     C     0.964     0.9636     0.3577
A_2     C     0.0966     0.1595     0.9206
A_1     C     0.6329     0.3757     0.0294
A_2     C     0.9314     0.7659     0.5089
A_1     C     0.8168     0.1204     0.0016
A_3     C     0.0756     0.8119     0.4434
A_1     C     0.6195     0.264     0.0528
A_0     C     0.8564     0.7407     0.5985
A_0     C     0.8562     0.8336     0.8802
A_2     C     0.4797     0.3885     0.7638
A_3     C     0.2424     0.2837     0.6479
A_1     C     0.1159     0.9098     0.7819
A_3     C     0.654     0.4012     0.0094
A_1     C     0.5376     0.2162     0.3143
A_0     C     0.3741     0.4485     0.1557
A_2     C     0.9052     0.1549     0.784
A_0     C     0.8254     0.059     0.9756
A_3     C     0.9444     0.2971     0.3013
A_2     C     0.0684     0.4866     0.8471
A_3     C     0.977     0.5411     0.3188
A_0     C     0.4682     0.6384     0.8538
A_2     C     0.6845     0.2848     0.4239
A_1     C     0.4287     0.021     0.0015
A_3     C     0.4069     0.0832     0.7514
A_1     C     0.581     0.3809     0.8603
A_1     C     0.2871     0.97     0.6614
A_0     C     0.7083     0.984     0.5983
A_3     C     0.7281     0.5528     0.7636
A_1     C     0.7083     0.441     0.0557
A_2     C     0.4845     0.0349     0.9716
A_3     C     0.1529     0.6899     0.8651
A_0     C     0.0696     0.7496     0.4994
A_3     C     0.1559     0.3444     0.9997
A_0     C     0.3782     0.3139     0.9372
A_3     C     0.1592     0.9123     0.0602
A_0     C     0.857     0.6845     0.7475
A_1     C     0.4037     0.3462     0.9597
A_3     C     0.1722     0.2892     0.3685
A_0     C     0.1785     0.0415     0.1084
A_0     C     0.1941     0.9711     0.1425
A_2     C     0.8168     0.344     0.4591
A_1     C     0.4082     0.02     0.0333
A_0     C     0.5922     0.1842     0.2877
A_0     C     0.3916     0.6683     0.8849
A_1     C     0.708     0.3399     0.4145
A_1     C     0.4523     0.6848     0.8151
A_2     C     0.5255     0.1431     0.3239
A_0     C     0.1459     0.8141     0.0148
A_2     C     0.9937     0.7502     0.6081
A_2     C     0.2931     0.0231     0.0485
A_3     C     0.0942     0.4664     0.0183
A_1     C     0.317     0.2334     0.8104
A_2     C     0.5052     0.0942     0.919
A_1     C     0.9319     0.683     0.9126
A_1     C     0.3838     0.6582     0.0818
A_0     C     0.8914     0.5527     0.9859
A_3     C     0.8427     0.8128     0.4578
A_2     C     0.547     0.1918     0.9224
A_0     C     0.536     0.9427     0.4858
A_0     C     0.2904     0.3038     0.3879
A_0     C     0.799     0.7653     0.2973
A_1     C     0.9195     0.3378     0.3304
A_2     C     0.8337     0.3432     0.8693
A_2     C     0.6181     0.5787     0.7135
A_0     C     0.4291     0.7937     0.7936
A_1     C     0.1117     0.7822     0.2134
A_3     C     0.3632     0.4295     0.3993
A_0     C     0.3101     0.3008     0.5902
A_0     C     0.6275     0.8781     0.9554
A_2     C     0.6526     0.1589     0.2086
A_2     C     0.8969     0.1646     0.6319
A_1     C     0.3025     0.8835     0.4357
A_1     C     0.3831     0.0072     0.7462
A_1     C     0.762     0.2587     0.594
A_1     C     0.0213     0.7399     0.4175
A_0     C     0.8219     0.7737     0.6582
A_3     C     0.7727     0.9206     0.928
A_1     C     0.7135     0.6773     0.2317
A_0     C     0.8943     0.4325     0.6105
A_2     C     0.9018     0.8946     0.806
A_3     C     0.0741     0.1509     0.1041
A_3     C     0.1364     0.1706     0.758
A_1     C     0.0349     0.5098     0.2258
A_3     C     0.171     0.9166     0.9861
A_2     C     0.1226     0.0698     0.913
A_1     C     0.1399     0.1161     0.1458
A_1     C     0.4326     0.9661     0.5417
A_0     C     0.4361     0.6771     0.1107
A_3     C     0.1326     0.2567     0.6938
A_3     C     0.0543     0.6392     0.3823
A_1     C     0.4145     0.5855     0.921
A_3     C     0.678     0.7127     0.3332
A_3     C     0.8712     0.8946     0.4065
A_3     C     0.6609     0.7683     0.9613
A_3     C     0.1676     0.6447     0.5111
A_3     C     0.0992     0.7419     0.4273
A_0     C     0.678     0.0652     0.7867
A_2     C     0.2885     0.8523     0.7666
A_2     C     0.0604     0.9447     0.959
A_3     C     0.7068     0.3326     0.2055
A_0     C     0.4125     0.4441     0.5027
A_1     C     0.3206     0.802     0.6154
A_3     C     0.6549     0.9297     0.9412
A_2     C     0.1827     0.9316     0.3342
A_3     C     0.2956     0.1103     0.1489
A_2     C     0.6108     0.162     0.2935
A_2     C     0.9364     0.9001     0.8023
A_1     C     0.9276     0.9973     0.8255
A_3     C     0.8544     0.1807     0.0131
A_2     C     0.9625     0.0111     0.4077
A_3     C     0.9067     0.6537     0.1237
A_3     C     0.3963     0.4854     0.3284
A_1     C     0.4561     0.8279     0.687
A_2     C     0.9041     0.7502     0.598
A_3     C     0.4274     0.5281     0.9416
A_2     C     0.2806     0.3236     0.9393
A_1     C     0.2292     0.8494     0.2609
A_1     C     0.0968     0.6012     0.4223
A_2     C     0.8247     0.4387     0.6102
A_2     C     0.0929     0.7107     0.6391
A_1     C     0.4217     0.2304     0.5392
A_2     C     0.139     0.3676     0.416
A_1     C     0.3464     0.4508     0.9784
A_0     C     0.4742     0.4811     0.6065
A_2     C     0.6256     0.7745     0.6247
A_0     C     0.0149     0.7188     0.7397
A_3     C     0.1873     0.4611     0.1631
A_2     C     0.3045     0.5296     0.2844
A_2     C     0.8008     0.6254     0.7822
A_0     C     0.4629     0.2263     0.7111
A_1     C     0.3571     0.9778     0.6262
A_1     C     0.2808     0.7935     0.7701
A_2     C     0.5901     0.6751     0.4719
A_0     C     0.5137     0.5916     0.0698
A_2     C     0.6824     0.8555     0.2176
A_2     C     0.8262     0.1558     0.6252
A_1     C     0.0028     0.3539     0.6813
A_3     C     0.4274     0.8957     0.9815
A_3     C     0.3505     0.793     0.0279
A_2     C     0.6382     0.7793     0.0027
A_1     C     0.998     0.8123     0.1312
A_2     C     0.6141     0.4461     0.9969
A_1     C     0.4358     0.2209     0.8598
A_2     C     0.9493     0.1636     0.4851
A_2     C     0.2881     0.6371     0.3465
A_1     C     0.681     0.1597     0.2307
A_0     C     0.8321     0.9135     0.4569
A_1     C     0.3175     0.5857     0.3684
A_3     C     0.806     0.4677     0.2668
A_0     C     0.7723     0.6834     0.1532
A_3     C     0.3415     0.9982     0.1753
A_3     C     0.0676     0.6203     0.5049
A_3     C     0.374     0.3576     0.4513
A_2     C     0.0234     0.7918     0.3023
A_0     C     0.5103     0.6417     0.7009
A_3     C     0.5537     0.089     0.25
A_0     C     0.876     0.2403     0.21
A_3     C     0.1551     0.8623     0.1959
A_0     C     0.4752     0.6862     0.9512
A_3     C     0.4553     0.5537     0.4333
A_0     C     0.6709     0.0096     0.7185
A_0     C     0.2355     0.0046     0.334
A_2     C     0.762     0.2313     0.149
A_2     C     0.4716     0.8375     0.5588
A_2     C     0.6623     0.4466     0.11
A_0     C     0.0785     0.8331     0.4636
A_3     C     0.6228     0.5308     0.9324
A_0     C     0.4541     0.8704     0.9608
A_3     C     0.9538     0.2666     0.3141
A_0     C     0.6583     0.909     0.4494
A_0     C     0.9849     0.4497     0.8066
A_1     C     0.4515     0.2379     0.6516
A_1     C     0.7466     0.7352     0.5784
A_2     C     0.3136     0.442     0.0084
A_2     C     0.6195     0.0565     0.0646
A_1     C     0.3221     0.171     0.4762
A_2     C     0.907     0.4278     0.6756
A_1     C     0.574     0.9103     0.9646
A_3     C     0.8449     0.4183     0.4476
A_2     C     0.7384     0.3905     0.0915
A_2     C     0.3484     0.0182     0.1485
A_1     C     0.1426     0.7369     0.8405
A_2     C     0.0054     0.0139     0.5068
A_0     C     0.3687     0.4018     0.6633
A_3     C     0.534     0.5632     0.5961
A_2     C     0.2311     0.2143     0.4285
A_1     C     0.5379     0.8301     0.4903
A_3     C     0.0371     0.374     0.5565
A_0     C     0.8126     0.2771     0.0402
A_2     C     0.3254     0.1674     0.6597
A_2     C     0.4498     0.4178     0.9493
A_3     C     0.0255     0.6386     0.2053
A_0     C     0.2328     0.6154     0.504
A_2     C     0.552     0.4319     0.8133
A_3     C     0.5672     0.1739     0.6995
A_2     C     0.2509     0.3592     0.4427
A_2     C     0.6204     0.2647     0.893
A_3     C     0.3451     0.0407     0.3577
A_2     C     0.5247     0.9221     0.0497
A_2     C     0.8607     0.1312     0.6434
A_3     C     0.6914     0.0134     0.3633
A_0     C     0.9785     0.0563     0.3613
A_1     C     0.5582     0.6829     0.0674
A_3     C     0.4072     0.2419     0.3312
A_2     C     0.6641     0.2665     0.7122
A_3     C     0.9316     0.4495     0.4709
A_1     C     0.0275     0.7582     0.9258
A_1     C     0.0555     0.4016     0.6118
A_1     C     0.1755     0.0929     0.317
A_3     C     0.9876     0.3607     0.9914
A_3     C     0.8918     0.2886     0.9264
A_3     C     0.5671     0.1731     0.2113
A_3     C     0.5255     0.393     0.1797
A_3     C     0.3953     0.2545     0.7914
A_3     C     0.2563     0.4587     0.9987
A_3     C     0.6919     0.5279     0.848
A_2     C     0.3277     0.6732     0.0137
A_2     C     0.6634     0.5225     0.4681
A_1     C     0.5964     0.5349     0.4135
A_2     C     0.4894     0.9652     0.2362
A_0     C     0.498     0.2759     0.6117
A_2     C     0.1762     0.1461     0.0691
A_3     C     0.7379     0.3523     0.4647
A_2     C     0.0967     0.9586     0.1979
A_0     C     0.4996     0.4107     0.6151
A_0     C     0.2206     0.0711     0.9741
A_1     C     0.4518     0.3984     0.2699
A_3     C     0.9046     0.849     0.0629
A_1     C     0.1131     0.6329     0.855
A_3     C     0.783     0.877     0.1543
A_0     C     0.031     0.6796     0.8077
A_1     C     0.4873     0.4744     0.4275
A_1     C     0.2145     0.6519     0.1047
A_2     C     0.8117     0.6263     0.6925
A_1     C     0.5904     0.06     0.2021
A_3     C     0.0844     0.1867     0.7705
A_2     C     0.6329     0.9219     0.2826
A_1     C     0.7619     0.7767     0.0162
A_0     C     0.1662     0.6626     0.9533
A_1     C     0.4623     0.8942     0.2613
A_1     C     0.5932     0.321     0.0874
A_3     C     0.3617     0.6795     0.3985
A_2     C     0.284     0.5383     0.7284
A_0     C     0.9458     0.9679     0.0465
A_0     C     0.4748     0.5257     0.3883
A_0     C     0.993     0.8739     0.9847
A_0     C     0.4529     0.1771     0.7373
A_3     C     0.1314     0.4941     0.493
A_3     C     0.0137     0.7756     0.5314
A_3     C     0.2701     0.7841     0.5561
A_0     C     0.2422     0.525     0.9349
A_3     C     0.1654     0.3573     0.7954
A_2     C     0.2828     0.9486     0.5923
A_0     C     0.2919     0.0506     0.1193
A_2     C     0.6242     0.8088     0.2407
A_2     C     0.542     0.3475     0.4744
A_1     C     0.3476     0.3588     0.3296
A_2     C     0.0977     0.405     0.1199
A_0     C     0.2463     0.5809     0.355
A_0     C     0.3135     0.3534     0.1427
A_3     C     0.1162     0.5747     0.4173
A_2     C     0.7352     0.2538     0.1133
A_2     C     0.7905     0.7796     0.8906
A_2     C     0.0325     0.2316     0.7206
A_2     C     0.2716     0.8967     0.2633
A_0     C     0.5136     0.1885     0.5438
A_3     C     0.9098     0.6253     0.848
A_2     C     0.1652     0.711     0.4809
A_1     C     0.9343     0.8403     0.8106
A_2     C     0.7968     0.0834     0.5151
A_0     C     0.0004     0.3426     0.1768
A_3     C     0.4673     0.2121     0.6551
A_0     C     0.9178     0.516     0.1969
A_0     C     0.0854     0.6768     0.6047
A_1     C     0.8649     0.0249     0.4238
A_2     C     0.4361     0.5616     0.1771
A_0     C     0.4987     0.5438     0.9646
A_2     C     0.8912     0.8832     0.1487
A_0     C     0.4293     0.5282     0.2622
A_2     C     0.4076     0.3167     0.5212
A_2     C     0.2822     0.0885     0.4293
A_3     C     0.6528     0.3708     0.2744
A_3     C     0.5975     0.13     0.2594
A_1     C     0.5444     0.8233     0.6414
A_3     C     0.2664     0.2539     0.4604
A_2     C     0.2597     0.1558     0.8092
A_0     C     0.3681     0.235     0.827
A_3     C     0.323     0.7427     0.6935
A_0     C     0.8326     0.1821     0.7595
A_0     C     0.9976     0.0541     0.0882
A_0     C     0.0759     0.4487     0.0635
A_3     C     0.3526     0.4337     0.3568
A_0     C     0.9842     0.5118     0.7132
A_3     C     0.716     0.0388     0.614
A_0     C     0.632     0.9663     0.6447
A_1     C     0.5099     0.5331     0.2324
A_2     C     0.3175     0.0776     0.3705
A_3     C     0.9573     0.4573     0.4213
A_1     C     0.339     0.0811     0.4724
A_3     C     0.0698     0.4391     0.8064
A_0     C     0.4881     0.3654     0.9195
A_3     C     0.5617     0.6871     0.0986
A_0     C     0.7638     0.2695     0.1918
A_2     C     0.2368     0.8626     0.7039
A_3     C     0.4375     0.1786     0.351
A_1     C     0.5705     0.3687     0.8425
A_3     C     0.0436     0.717     0.6071
A_2     C     0.4459     0.4244     0.1794
A_2     C     0.0277     0.1167     0.5775
A_0     C     0.4441     0.5021     0.3019
A_3     C     0.5267     0.5447     0.9443
A_3     C     0.1964     0.5161     0.7454
A_2     C     0.4859     0.5601     0.12
A_2     C     0.0585     0.7727     0.2978
A_3     C     0.1434     0.6373     0.2483
A_1     C     0.1653     0.0364     0.4404
A_3     C     0.0282     0.333     0.7802
A_2     C     0.1402     0.0311     0.2675
A_3     C     0.3093     0.5316     0.7056
A_2     C     0.0257     0.0032     0.5289
A_1     C     0.9302     0.9211     0.3565
A_3     C     0.4031     0.1402     0.1073
A_3     C     0.5433     0.0368     0.0428
A_2     C     0.0006     0.9018     0.9686
A_1     C     0.6126     0.0126     0.9377
A_1     C     0.6373     0.0673     0.4988
A_3     C     0.6381     0.4213     0.8359
A_0     C     0.9507     0.5985     0.0168
A_2     C     0.3151     0.1432     0.9991
A_3     C     0.0424     0.3456     0.5339
A_1     C     0.0114     0.2979     0.9265
A_3     C     0.8948     0.6945     0.4268
A_1     C     0.3147     0.0468     0.8813
A_0     C     0.4157     0.4157     0.2352
A_1     C     0.0351     0.3855     0.7697
A_2     C     0.1688     0.9455     0.4848
A_2     C     0.7259     0.9358     0.3039
A_2     C     0.2115     0.5162     0.7589
A_3     C     0.533     0.3763     0.0654
A_3     C     0.2295     0.1214     0.8297
A_1     C     0.8684     0.4148     0.6996
A_2     C     0.5295     0.3189     0.335
A_3     C     0.0766     0.6832     0.4997
A_2     C     0.4597     0.0906     0.374
A_0     C     0.6939     0.2816     0.396
A_0     C     0.023     0.9246     0.4288
A_2     C     0.7781     0.4389     0.0943
A_2     C     0.5031     0.8306     0.2921
A_3     C     0.3512     0.7886     0.8512
A_1     C     0.9297     0.1368     0.6604
A_2     C     0.4029     0.5655     0.0084
A_1     C     0.7092     0.2128     0.3191
A_0     C     0.6113     0.511     0.3732
A_2     C     0.9209     0.5617     0.0334
A_0     C     0.4701     0.1913     0.7391
A_0     C     0.1484     0.8568     0.3313
A_3     C     0.0381     0.2708     0.5219
A_0     C     0.3195     0.7562     0.6567
A_1     C     0.3823     0.6933     0.7875
A_1     C     0.2875     0.2329     0.8828
A_2     C     0.0979     0.025     0.4042
A_3     C     0.0532     0.0048     0.9979
A_1     C     0.2942     0.6511     0.8064
A_1     C     0.5112     0.8189     0.7985
A_0     C     0.193     0.8455     0.9751
A_2     C     0.3835     0.1096     0.0486
A_1     C     0.6149     0.4829     0.222
A_2     C     0.7694     0.6022     0.1507
A_3     C     0.5342     0.5952     0.552
A_3     C     0.1615     0.8051     0.3032
A_0     C     0.8664     0.8286     0.5324
A_2     C     0.7328     0.578     0.9738
A_0     C     0.6325     0.0676     0.7078
A_0     C     0.5834     0.6632     0.2532
A_2     C     0.9974     0.788     0.7904
A_0     C     0.3696     0.0884     0.4681
A_3     C     0.3915     0.0091     0.7302
A_2     C     0.2909     0.5236     0.1962
A_3     C     0.4222     0.2414     0.4493
A_0     C     0.2369     0.3189     0.4588
A_1     C     0.082     0.386     0.9907
A_3     C     0.8214     0.7454     0.8338
A_2     C     0.3696     0.9963     0.6531
A_0     C     0.192     0.3971     0.1244
A_2     C     0.5309     0.9223     0.7562
A_1     C     0.3789     0.3331     0.5063
A_2     C     0.1071     0.2248     0.1655
A_0     C     0.3569     0.0094     0.5052
A_1     C     0.5523     0.4142     0.9643
A_1     C     0.1797     0.376     0.576
A_1     C     0.2717     0.913     0.203
A_2     C     0.7954     0.3161     0.733
A_2     C     0.3926     0.7329     0.5504
A_2     C     0.2174     0.1161     0.5068
A_1     C     0.6664     0.323     0.6665
A_0     C     0.8668     0.3036     0.9729
A_2     C     0.7167     0.5672     0.805
A_2     C     0.6277     0.6421     0.6203
A_3     C     0.222     0.3934     0.8176
A_0     C     0.1694     0.4916     0.3038
A_1     C     0.6848     0.7647     0.9634
A_1     C     0.7023     0.3803     0.0091
A_0     C     0.4578     0.3182     0.6013
A_0     C     0.9724     0.9064     0.2191
A_3     C     0.0694     0.968     0.1775
A_2     C     0.6673     0.6178     0.838
A_1     C     0.8505     0.2904     0.7601
A_0     C     0.9981     0.7658     0.6777
A_2     C     0.2444     0.8862     0.6233
A_2     C     0.7113     0.2212     0.3598
A_0     C     0.2718     0.8131     0.4771
A_3     C     0.2204     0.693     0.8217
A_1     C     0.3967     0.631     0.1823
A_2     C     0.3358     0.3106     0.2875
A_2     C     0.8753     0.7143     0.2198
A_2     C     0.1779     0.9719     0.6689
A_0     C     0.1594     0.5038     0.3697
A_1     C     0.1393     0.0747     0.444
A_1     C     0.0242     0.8214     0.0028
A_0     C     0.0279     0.0807     0.3733
A_2     C     0.98     0.6229     0.8792
A_1     C     0.348     0.3143     0.0474
A_1     C     0.8545     0.7673     0.421
A_3     C     0.9917     0.3992     0.947
A_1     C     0.7298     0.4307     0.6356
A_0     C     0.0284     0.4821     0.838
A_3     C     0.7726     0.0406     0.7802
A_3     C     0.0855     0.7106     0.9784
A_3     C     0.0756     0.8191     0.5573
A_1     C     0.7996     0.3777     0.0603
A_2     C     0.1242     0.8506     0.5082
A_1     C     0.4467     0.5594     0.6519
A_0     C     0.5356     0.7473     0.5214
A_3     C     0.7577     0.1846     0.5069
A_0     C     0.654     0.817     0.9652
A_1     C     0.111     0.9413     0.8779
A_1     C     0.796     0.0391     0.1526
A_1     C     0.1334     0.6665     0.152
A_1     C     0.5066     0.9639     0.4465
A_3     C     0.4033     0.2368     0.9947
A_1     C     0.6386     0.1619     0.4595
A_0     C     0.4546     0.1768     0.3149
A_2     C     0.9579     0.897     0.7601
A_2     C     0.2554     0.827     0.7699
A_2     C     0.9569     0.8798     0.3186
A_3     C     0.9354     0.4847     0.5507
A_2     C     0.4802     0.2933     0.4313
A_0     C     0.8598     0.4388     0.6005
A_1     C     0.2854     0.4021     0.4288
A_3     C     0.3066     0.6793     0.4793
A_2     C     0.9954     0.5887     0.0372
A_3     C     0.2842     0.8678     0.9396
A_0     C     0.0921     0.6494     0.7432
A_2     C     0.8733     0.4645     0.1377
A_1     C     0.6023     0.5071     0.4706
A_0     C     0.6125     0.9837     0.8271
A_0     C     0.9827     0.9858     0.2608
A_1     C     0.1825     0.5209     0.3236
A_3     C     0.8987     0.0558     0.7351
A_2     C     0.7988     0.6772     0.3767
A_1     C     0.8477     0.8221     0.1421
A_2     C     0.4109     0.0291     0.7282
A_0     C     0.937     0.5425     0.971
A_0     C     0.875     0.372     0.4216
A_2     C     0.3742     0.4972     0.5852
A_1     C     0.7907     0.3005     0.1042
A_3     C     0.759     0.9055     0.0601
A_2     C     0.0104     0.0811     0.9818
A_2     C     0.9403     0.2004     0.0494
A_0     C     0.7338     0.8397     0.7459
A_1     C     0.4967     0.4329     0.9448
A_1     C     0.7262     0.5309     0.7334
A_2     C     0.0904     0.9645     0.7282
A_1     C     0.8666     0.5018     0.8478
A_1     C     0.6511     0.0428     0.4384
A_3     C     0.1258     0.3476     0.4119
A_2     C     0.1921     0.0249     0.621
A_0     C     0.3024     0.3958     0.4733
A_3     C     0.8994     0.7151     0.4491
A_0     C     0.2535     0.6617     0.0047
A_3     C     0.1279     0.6042     0.6801
A_1     C     0.0242     0.8814     0.5158
A_2     C     0.7401     0.35     0.2525
A_2     C     0.9941     0.4829     0.0406
A_2     C     0.2513     0.1837     0.2775
A_1     C     0.4372     0.169     0.5599
A_3     C     0.4183     0.1966     0.5826
A_3     C     0.6393     0.3023     0.9841
A_1     C     0.2958     0.8533     0.8898
A_3     C     0.3188     0.6545     0.1981
A_3     C     0.601     0.644     0.2267
A_2     C     0.8996     0.8779     0.6125
A_1     C     0.8071     0.2642     0.0183
A_0     C     0.6229     0.189     0.9594
A_3     C     0.3343     0.9172     0.0317
A_2     C     0.0313     0.6011     0.1458
A_1     C     0.0755     0.0723     0.1759
A_3     C     0.7285     0.0791     0.7652
A_2     C     0.8566     0.8437     0.5602
A_0     C     0.5656     0.6953     0.0653
A_2     C     0.0159     0.1019     0.0415
A_1     C     0.4618     0.9479     0.6085
A_3     C     0.226     0.8055     0.2338
A_1     C     0.846     0.6769     0.1002
A_2     C     0.5359     0.8168     0.3077
A_2     C     0.1795     0.939     0.6578
A_1     C     0.2339     0.748     0.3398
A_1     C     0.9898     0.3706     0.5218
A_2     C     0.4815     0.917     0.0238
A_0     C     0.8041     0.1354     0.37
A_1     C     0.6596     0.9804     0.7541
A_1     C     0.1738     0.7515     0.217
A_0     C     0.586     0.3524     0.9846
A_3     C     0.7837     0.8277     0.104
A_0     C     0.5385     0.9257     0.8752
A_0     C     0.2956     0.2721     0.7481
A_1     C     0.2445     0.2942     0.8554
A_1     C     0.3583     0.9829     0.484
A_1     C     0.6149     0.8794     0.6084
A_0     C     0.4064     0.1157     0.095
A_1     C     0.9428     0.8617     0.1348
A_2     C     0.0894     0.6811     0.1478
A_0     C     0.4607     0.4415     0.7069
A_2     C     0.0156     0.1686     0.7541
A_1     C     0.416     0.9796     0.2477
A_2     C     0.5949     0.4478     0.1025
A_1     C     0.4996     0.0265     0.6592
A_1     C     0.7877     0.664     0.7205
A_1     C     0.406     0.264     0.8703
A_2     C     0.6986     0.7292     0.777
A_1     C     0.6434     0.754     0.6646
A_1     C     0.7301     0.9067     0.8075
A_0     C     0.6335     0.4351     0.3669
A_1     C     0.9505     0.2827     0.592
A_1     C     0.3772     0.2025     0.4299
A_1     C     0.525     0.593     0.0513
A_1     C     0.1834     0.2913     0.0149
A_1     C     0.5818     0.4433     0.3522
A_2     C     0.2658     0.7473     0.2486
A_1     C     0.6064     0.978     0.1094
A_1     C     0.6313     0.0605     0.339
A_1     C     0.9445     0.5836     0.7387
A_2     C     0.1402     0.1443     0.6997
A_2     C     0.0563     0.394     0.7629
A_1     C     0.6013     0.1076     0.958
A_2     C     0.0387     0.0793     0.1884
A_1     C     0.6527     0.8427     0.3081
A_1     C     0.8365     0.1052     0.8917
A_2     C     0.5804     0.7212     0.6175
A_1     C     0.2558     0.0735     0.1988
A_2     C     0.2523     0.8838     0.5763
A_0     C     0.7515     0.0551     0.5479
A_1     C     0.4719     0.6685     0.6666
A_0     C     0.2312     0.5487     0.9599
A_3     C     0.3107     0.8822     0.526
A_1     C     0.738     0.3789     0.0837
A_1     C     0.6006     0.4602     0.4355
A_0     C     0.825     0.4632     0.3255
A_3     C     0.0781     0.6477     0.9342
A_3     C     0.8457     0.7187     0.7703
A_2     C     0.8063     0.6082     0.9808
A_2     C     0.171     0.2319     0.3207
A_0     C     0.1084     0.4563     0.4017
A_3     C     0.1632     0.9673     0.7914
A_0     C     0.3428     0.0327     0.8828
A_2     C     0.7027     0.7982     0.7915
A_1     C     0.4242     0.1608     0.1098
A_1     C     0.7613     0.9326     0.2219
A_0     C     0.4233     0.0766     0.9391
A_3     C     0.7431     0.3292     0.203
A_3     C     0.9292     0.8627     0.9839
A_1     C     0.9041     0.4133     0.7658
A_1     C     0.7004     0.8515     0.8937
A_1     C     0.6167     0.0433     0.4991
A_3     C     0.2065     0.246     0.2362
A_1     C     0.1365     0.5022     0.2508
A_2     C     0.5847     0.6598     0.4984
A_1     C     0.3883     0.176     0.2856
A_3     C     0.8878     0.927     0.9632
A_0     C     0.9147     0.97     0.4456
A_3     C     0.8899     0.7454     0.1138
A_3     C     0.7738     0.5116     0.0811
A_0     C     0.8461     0.8043     0.6502
A_3     C     0.8395     0.3209     0.2962
A_2     C     0.5729     0.103     0.2754
A_0     C     0.5482     0.0814     0.5596
A_3     C     0.2862     0.6236     0.2135
A_3     C     0.3594     0.075     0.1614
A_0     C     0.3915     0.0708     0.0219
A_2     C     0.6474     0.7581     0.6262
A_3     C     0.9888     0.8397     0.7854
A_2     C     0.7094     0.5195     0.902
A_3     C     0.5897     0.744     0.7508
A_0     C     0.4937     0.2644     0.7311
A_3     C     0.8013     0.7837     0.0869
A_3     C     0.2082     0.6567     0.3604
A_3     C     0.9785     0.7407     0.5932
A_2     C     0.8049     0.5702     0.1124
A_0     C     0.1395     0.1665     0.3453
A_3     C     0.8062     0.7519     0.2386
A_1     C     0.4377     0.9253     0.2366
A_3     C     0.9876     0.5554     0.4886
A_3     C     0.628     0.0078     0.1922
A_1     C     0.0227     0.3758     0.8939
A_0     C     0.1321     0.9709     0.805
A_1     C     0.1882     0.1619     0.5591
A_1     C     0.8203     0.7625     0.0778
A_3     C     0.9346     0.8414     0.8901
A_3     C     0.7681     0.3612     0.0591
A_2     C     0.139     0.869     0.4471
A_2     C     0.4361     0.7424     0.8112
A_1     C     0.6724     0.8733     0.9033
A_0     C     0.52     0.9195     0.26
A_0     C     0.263     0.5267     0.3594
A_1     C     0.4524     0.513     0.0696
A_1     C     0.1471     0.3021     0.34
A_1     C     0.0469     0.9617     0.1182
A_2     C     0.2036     0.7894     0.9744
A_3     C     0.9563     0.0355     0.2846
A_3     C     0.9675     0.3548     0.6766
A_3     C     0.4707     0.776     0.2373
A_2     C     0.7702     0.5908     0.213
A_1     C     0.3359     0.7148     0.7941
A_1     C     0.1239     0.0451     0.4391
A_2     C     0.7687     0.4237     0.0532
A_0     C     0.4501     0.4192     0.6051
A_0     C     0.8429     0.6175     0.695
A_3     C     0.7613     0.8767     0.0931
A_2     C     0.2306     0.2776     0.8288
A_1     C     0.3191     0.3747     0.9472
A_3     C     0.9323     0.0338     0.8696
A_0     C     0.1663     0.3591     0.8572
A_1     C     0.0311     0.5556     0.0701
A_3     C     0.0723     0.9573     0.1428
A_3     C     0.7909     0.0436     0.4448
A_2     C     0.1219     0.0264     0.1763
A_0     C     0.3819     0.2598     0.3557
A_2     C     0.9505     0.7214     0.8267
A_3     C     0.7476     0.5087     0.904
A_1     C     0.7096     0.3192     0.6047
A_2     C     0.1971     0.4038     0.1702
A_1     C     0.3987     0.5085     0.292
A_0     C     0.3838     0.8172     0.5605
A_1     C     0.1842     0.9015     0.9863
A_2     C     0.8392     0.2408     0.5048
A_3     C     0.798     0.2854     0.7337
A_2     C     0.2242     0.8095     0.775
A_0     C     0.9764     0.9647     0.1698
A_3     C     0.9166     0.6483     0.7845
A_0     C     0.5117     0.1643     0.2787
A_0     C     0.4201     0.6885     0.5348
A_0     C     0.5321     0.5979     0.4815
A_3     C     0.96     0.7957     0.8367
A_0     C     0.4582     0.379     0.2252
A_0     C     0.3357     0.819     0.1507
A_1     C     0.8817     0.2899     0.2054
A_2     C     0.0082     0.0509     0.1822
A_3     C     0.1915     0.8083     0.4856
A_2     C     0.4027     0.8731     0.1059
A_3     C     0.0812     0.5476     0.2634
A_0     C     0.2336     0.1282     0.2986
A_1     C     0.383     0.334     0.7679
A_0     C     0.6759     0.7689     0.6165
A_3     C     0.0244     0.4474     0.6876
A_2     C     0.4188     0.7729     0.99
A_0     C     0.5229     0.4784     0.6969
A_3     C     0.5617     0.0382     0.1894
A_3     C     0.9257     0.4477     0.6386
A_0     C     0.9044     0.6983     0.6648
A_1     C     0.6247     0.5109     0.526
A_2     C     0.4163     0.4838     0.3067
A_0     C     0.7959     0.5719     0.359
A_3     C     0.0237     0.9672     0.8925
A_3     C     0.4874     0.9545     0.0917
A_2     C     0.4298     0.6623     0.2108
A_0     C     0.8789     0.0906     0.0755
A_0     C     0.6191     0.1306     0.9206
A_1     C     0.4227     0.1866     0.2874
A_2     C     0.8702     0.1152     0.4304
A_0     C     0.4422     0.823     0.6976
A_1     C     0.6142     0.0962     0.4716
A_1     C     0.0585     0.5408     0.2416
A_1     C     0.5498     0.5161     0.275
A_3     C     0.9439     0.9377     0.7206
A_0     C     0.7217     0.6373     0.6508
A_1     C     0.8403     0.7018     0.196
A_3     C     0.6364     0.7185     0.5063
A_1     C     0.3526     0.601     0.3801
A_1     C     0.2515     0.5092     0.2295
A_0     C     0.4355     0.935     0.149
A_0     C     0.0232     0.3229     0.6631
A_3     C     0.9244     0.4998     0.8823
A_0     C     0.8576     0.0387     0.0439
A_1     C     0.67     0.5404     0.7121
A_0     C     0.9888     0.0109     0.5416
A_3     C     0.7391     0.2203     0.2332
A_3     C     0.6486     0.3642     0.5
A_2     C     0.6234     0.4908     0.7376
A_0     C     0.5527     0.1272     0.1608
A_0     C     0.8419     0.3486     0.4965
A_3     C     0.7411     0.2112     0.7936
A_3     C     0.097     0.5905     0.5699
A_0     C     0.923     0.9669     0.5866
A_1     C     0.7453     0.3247     0.919
A_2     C     0.9734     0.6917     0.6336
A_0     C     0.7312     0.6202     0.4559
A_3     C     0.9052     0.1945     0.9203
A_3     C     0.815     0.4121     0.8551
A_0     C     0.6732     0.5029     0.1867
A_1     C     0.3661     0.6973     0.3778
A_1     C     0.736     0.2164     0.931
A_2     C     0.0184     0.4497     0.4994
A_2     C     0.0623     0.1111     0.5361
A_3     C     0.1072     0.2383     0.0822
A_3     C     0.9086     0.5976     0.7384
A_2     C     0.0282     0.7663     0.073
A_1     C     0.6392     0.5177     0.0354
A_1     C     0.6708     0.7557     0.8515
A_3     C     0.4853     0.7687     0.8834
A_3     C     0.0246     0.5562     0.2514
A_2     C     0.4539     0.7092     0.76
A_1     C     0.869     0.3606     0.6952
A_2     C     0.9904     0.3111     0.664
A_1     C     0.1114     0.6564     0.5069
A_3     C     0.2567     0.8636     0.0373
A_3     C     0.1771     0.8244     0.4132
A_2     C     0.6302     0.7685     0.1401
A_3     C     0.479     0.7228     0.4717
A_2     C     0.2026     0.899     0.1644
A_0     C     0.7176     0.2358     0.4536
A_0     C     0.1565     0.3176     0.7203
A_3     C     0.7576     0.0396     0.8238
A_0     C     0.8569     0.0624     0.1874
A_1     C     0.9431     0.3511     0.6625
A_1     C     0.4461     0.1531     0.6194
A_1     C     0.0768     0.3384     0.869
A_1     C     0.5287     0.1791     0.2457
A_1     C     0.2659     0.9431     0.5325
A_3     C     0.1971     0.1263     0.3678
A_0     C     0.0287     0.338     0.5024
A_2     C     0.5769     0.8425     0.0295
A_2     C     0.5134     0.5464     0.5694
A_0     C     0.2469     0.1998     0.9936
A_3     C     0.4753     0.2781     0.3043
A_1     C     0.1738     0.565     0.7989
A_0     C     0.2166     0.6616     0.1979
A_3     C     0.1258     0.0816     0.2638
A_0     C     0.7374     0.3808     0.264
A_3     C     0.0844     0.0688     0.9537
A_2     C     0.7055     0.6201     0.2574
A_3     C     0.7948     0.7598     0.0017
A_1     C     0.4015     0.6313     0.3089
A_2     C     0.2303     0.6286     0.7952
A_3     C     0.6444     0.8228     0.5641
A_2     C     0.2517     0.7209     0.5053
A_2     C     0.2927     0.6368     0.375
A_3     C     0.3898     0.2924     0.9493
A_3     C     0.1485     0.1401     0.4824
A_2     C     0.2788     0.4035     0.1411
A_3     C     0.8573     0.0723     0.4118
A_1     C     0.7896     0.7706     0.6751
A_1     C     0.9296     0.6474     0.0876
A_0     C     0.7447     0.4733     0.2575
A_1     C     0.5659     0.4818     0.8944
A_2     C     0.6806     0.9076     0.0473
A_3     C     0.1228     0.1891     0.1783
A_2     C     0.2505     0.6935     0.299
A_3     C     0.0513     0.3023     0.573
A_0     C     0.781     0.1155     0.0627
A_3     C     0.3134     0.8288     0.7453
A_1     C     0.3192     0.785     0.1794
A_0     C     0.1145     0.9232     0.2672
A_2     C     0.868     0.3891     0.2767
A_0     C     0.6666     0.4164     0.9675
A_0     C     0.6638     0.1967     0.7756
A_2     C     0.9539     0.2403     0.3589
A_0     C     0.2785     0.4502     0.2331
A_2     C     0.7135     0.232     0.1591
A_1     C     0.9335     0.296     0.0971
A_2     C     0.0771     0.5558     0.3343
A_3     C     0.6996     0.3991     0.9258
A_0     C     0.2198     0.7406     0.8899
A_3     C     0.3101     0.985     0.5484
A_0     C     0.2376     0.1387     0.1601
A_1     C     0.3893     0.464     0.5878
A_0     C     0.8502     0.9632     0.0414
A_2     C     0.5518     0.2349     0.7706
A_1     C     0.1587     0.7266     0.4069
A_1     C     0.034     0.0016     0.6413
A_2     C     0.3103     0.21     0.1539
A_0     C     0.7647     0.0655     0.8777
A_2     C     0.8835     0.2179     0.8044
A_3     C     0.6446     0.5312     0.0919
A_1     C     0.3044     0.595     0.9924
A_1     C     0.7388     0.1543     0.7816
A_0     C     0.8979     0.7451     0.583
A_2     C     0.9024     0.5198     0.8338
A_3     C     0.5418     0.6457     0.3655
A_0     C     0.5721     0.1403     0.8141
A_0     C     0.5248     0.0582     0.9147
A_1     C     0.3938     0.9666     0.3629
A_3     C     0.3927     0.1281     0.6823
A_0     C     0.2936     0.5105     0.2512
A_1     C     0.6276     0.33     0.8462
A_2     C     0.8556     0.5379     0.8246
A_0     C     0.1737     0.3658     0.4202
A_1     C     0.2213     0.5329     0.5621
A_2     C     0.5312     0.1405     0.9737
A_1     C     0.2617     0.9036     0.4143
A_1     C     0.4462     0.5066     0.6286
A_0     C     0.0746     0.9618     0.0535
A_1     C     0.7644     0.6269     0.8306
A_3     C     0.4824     0.6258     0.7629
A_0     C     0.4529     0.9416     0.8212
A_0     C     0.7616     0.7757     0.4861
A_0     C     0.2624     0.9006     0.5537
A_1     C     0.219     0.4081     0.9957
A_1     C     0.8466     0.8009     0.8555
A_1     C     0.3832     0.0419     0.9906
A_0     C     0.6411     0.5075     0.6108
A_1     C     0.2208     0.4525     0.4165
A_3     C     0.9434     0.3262     0.6045
A_3     C     0.2018     0.5192     0.5816
A_0     C     0.8943     0.6401     0.7916
A_2     C     0.1746     0.8607     0.5507
A_3     C     0.6215     0.9722     0.0548
A_2     C     0.7619     0.3638     0.5897
A_2     C     0.7849     0.4336     0.9505
A_0     C     0.3195     0.9628     0.8237
A_1     C     0.442     0.7767     0.0601
A_2     C     0.6756     0.4594     0.541
A_2     C     0.3345     0.7354     0.0579
A_1     C     0.204     0.9965     0.2792
A_1     C     0.9795     0.2557     0.7774
A_0     C     0.2637     0.5815     0.5594
A_2     C     0.3566     0.5029     0.151
A_0     C     0.3897     0.1461     0.1595
A_1     C     0.675     0.7143     0.2392
A_2     C     0.6614     0.3716     0.1533
A_2     C     0.3853     0.7462     0.4238
A_1     C     0.2593     0.7855     0.8383
A_3     C     0.3062     0.3079     0.2523
A_3     C     0.6233     0.1127     0.9062
A_0     C     0.1986     0.6678     0.8396
A_0     C     0.6188     0.8394     0.6354
A_1     C     0.7819     0.7782     0.7676
A_2     C     0.3001     0.3966     0.9448
A_3     C     0.0826     0.057     0.1265
A_2     C     0.9631     0.8081     0.4812
A_3     C     0.9488     0.4565     0.5084
A_3     C     0.6952     0.4006     0.441
A_2     C     0.6223     0.2018     0.5325
A_2     C     0.2078     0.5668     0.1566
A_2     C     0.9201     0.6297     0.3808
A_0     C     0.9362     0.0034     0.1084
A_2     C     0.3559     0.2235     0.9059
A_2     C     0.0977     0.0391     0.5693
A_3     C     0.8398     0.9994     0.9204
A_1     C     0.2861     0.2297     0.1215
A_2     C     0.9148     0.0043     0.201
A_1     C     0.3729     0.8276     0.5933
A_2     C     0.4459     0.5387     0.5583
A_3     C     0.4511     0.4516     0.9569
A_2     C     0.3722     0.8573     0.4606
A_0     C     0.101     0.3128     0.2096
A_1     C     0.1936     0.0696     0.2302
A_0     C     0.559     0.6633     0.4639
A_1     C     0.1639     0.8296     0.2867
A_1     C     0.8816     0.2179     0.033
A_0     C     0.1506     0.2037     0.4578
A_3     C     0.7823     0.7561     0.0461
A_1     C     0.4309     0.2988     0.4602
A_1     C     0.1138     0.9744     0.0309
A_0     C     0.2683     0.793     0.7443
A_3     C     0.0934     0.9007     0.8951
A_3     C     0.5453     0.3757     0.4616
A_2     C     0.035     0.2648     0.5444
A_3     C     0.9927     0.4428     0.695
A_1     C     0.6515     0.7817     0.662
A_0     C     0.3492     0.4472     0.767
A_3     C     0.2186     0.6505     0.2509
A_0     C     0.5294     0.885     0.0535
A_2     C     0.196     0.504     0.838
A_0     C     0.6622     0.5553     0.3605
A_2     C     0.3597     0.998     0.4001
A_1     C     0.7358     0.9401     0.6725
A_1     C     0.0318     0.9612     0.5087
A_0     C     0.4114     0.6823     0.8648
A_0     C     0.3755     0.4113     0.809
A_3     C     0.9939     0.2884     0.8722
A_1     C     0.0373     0.9145     0.5068
A_1     C     0.8605     0.4978     0.2503
A_3     C     0.7627     0.4139     0.3074
A_1     C     0.8926     0.2191     0.5305
A_1     C     0.9323     0.1829     0.6656
A_3     C     0.5924     0.2778     0.6913
A_2     C     0.3697     0.6009     0.2857
A_1     C     0.5638     0.5893     0.627
A_1     C     0.3218     0.7709     0.3455
A_2     C     0.1767     0.508     0.4358
A_1     C     0.7784     0.9635     0.9353
A_0     C     0.9544     0.9034     0.9342
A_0     C     0.9815     0.5121     0.0545
A_1     C     0.2275     0.9547     0.2467
A_3     C     0.1227     0.2645     0.6216
A_3     C     0.3132     0.8443     0.9939
A_1     C     0.6801     0.9958     0.6553
A_1     C     0.0897     0.0649     0.9775
A_3     C     0.2646     0.9088     0.0405
A_2     C     0.0082     0.028     0.6764
A_3     C     0.716     0.9912     0.0161
A_2     C     0.6972     0.7276     0.6573
A_2     C     0.2552     0.802     0.8927
A_0     C     0.7891     0.4102     0.0222
A_1     C     0.7689     0.4792     0.2716
A_1     C     0.0285     0.0759     0.9122
A_1     C     0.2156     0.6214     0.2777
A_1     C     0.2359     0.0289     0.7369
A_0     C     0.3507     0.9804     0.8242
A_3     C     0.0324     0.3147     0.672
A_2     C     0.7449     0.7998     0.4427
A_0     C     0.5493     0.6753     0.0164
A_2     C     0.438     0.9691     0.5651
A_0     C     0.0129     0.7187     0.0907
A_2     C     0.7451     0.7706     0.4283
A_0     C     0.113     0.9489     0.0574
A_3     C     0.9702     0.104     0.9114
A_2     C     0.6999     0.274     0.7725
A_0     C     0.8524     0.96     0.3188
A_2     C     0.8506     0.684     0.7716
A_2     C     0.6698     0.2368     0.9271
A_3     C     0.3402     0.4101     0.0921
A_2     C     0.1513     0.3546     0.7948
A_3     C     0.407     0.1406     0.5581
A_3     C     0.3077     0.205     0.752
A_1     C     0.3283     0.0871     0.7016
A_1     C     0.6791     0.6473     0.6516
A_1     C     0.7028     0.9975     0.0123
A_0     C     0.4786     0.4701     0.6002
A_0     C     0.0041     0.8041     0.7489
A_2     C     0.5367     0.9593     0.7094
A_3     C     0.5524     0.8941     0.8088
A_2     C     0.8715     0.3858     0.8405
A_3     C     0.1944     0.3501     0.1511
A_3     C     0.9302     0.4313     0.77
A_0     C     0.5417     0.4327     0.8474
A_2     C     0.1419     0.5669     0.6656
A_3     C     0.6086     0.2316     0.9356
A_1     C     0.1107     0.3646     0.5776
A_2     C     0.4052     0.792     0.2787
A_2     C     0.3152     0.6594     0.4922
A_3     C     0.8433     0.5885     0.9446
A_3     C     0.4373     0.7229     0.7219
A_3     C     0.2206     0.6143     0.5218
A_0     C     0.499     0.1566     0.1529
A_2     C     0.9049     0.2989     0.2549
A_2     C     0.3903     0.9691     0.3542
A_2     C     0.2474     0.7494     0.0623
A_1     C     0.7745     0.8829     0.6315
A_2     C     0.1481     0.3426     0.1602
A_2     C     0.8339     0.3302     0.3188
A_1     C     0.9494     0.7321     0.0677
A_1     C     0.5089     0.958     0.3182
A_1     C     0.6436     0.6297     0.8656
A_2     C     0.8698     0.5977     0.6287
A_3     C     0.7975     0.5831     0.2132
A_1     C     0.9805     0.6339     0.1699
A_2     C     0.5927     0.2479     0.7778
A_1     C     0.5114     0.889     0.3428
A_0     C     0.4229     0.6313     0.7348
A_2     C     0.6172     0.0209     0.5256
A_0     C     0.3796     0.8514     0.1456
A_1     C     0.9943     0.8891     0.7326
A_3     C     0.0132     0.0411     0.5908
A_0     C     0.3031     0.7608     0.8469
A_0     C     0.782     0.0221     0.602
A_3     C     0.8985     0.0544     0.791
A_2     C     0.9135     0.9306     0.9123
A_2     C     0.5542     0.511     0.7029
A_3     C     0.0426     0.4851     0.9642
A_0     C     0.1892     0.0246     0.1273
A_0     C     0.8361     0.5658     0.3738
A_2     C     0.2046     0.9493     0.0294
A_3     C     0.6555     0.7609     0.0178
A_3     C     0.5215     0.8111     0.8834
A_3     C     0.7582     0.217     0.6434
A_1     C     0.3562     0.908     0.5272
A_3     C     0.9258     0.5921     0.4111
A_3     C     0.1072     0.1066     0.555
A_1     C     0.5614     0.9399     0.425
A_1     C     0.8516     0.6162     0.9776
A_3     C     0.576     0.604     0.0392
A_0     C     0.421     0.8107     0.1914
A_2     C     0.9432     0.0165     0.7364
A_1     C     0.23     0.3896     0.7195
A_0     C     0.3627     0.6859     0.2697
A_0     C     0.683     0.7927     0.8146
A_0     C     0.1066     0.0284     0.6418
A_2     C     0.5955     0.4864     0.5072
A_0     C     0.1402     0.8944     0.4524
A_3     C     0.8789     0.7429     0.1401
A_0     C     0.8085     0.6236     0.3855
A_1     C     0.432     0.662     0.6371
A_1     C     0.6967     0.2745     0.4147
A_3     C     0.3606     0.0009     0.5009
A_3     C     0.5366     0.688     0.6492
A_2     C     0.6895     0.6723     0.4758
A_3     C     0.3229     0.1291     0.471
A_3     C     0.4697     0.2149     0.3569
A_1     C     0.21     0.3676     0.9817
A_1     C     0.8338     0.7516     0.0765
A_0     C     0.8775     0.7379     0.6863
A_1     C     0.6755     0.3794     0.2272
A_1     C     0.6935     0.2762     0.3108
A_3     C     0.5531     0.14     0.3359
A_3     C     0.4283     0.1793     0.7523
A_0     C     0.3505     0.573     0.647
A_2     C     0.593     0.1624     0.1261
A_1     C     0.9079     0.1014     0.0566
A_0     C     0.6885     0.5679     0.4862
A_0     C     0.1266     0.9035     0.2822
A_1     C     0.3824     0.747     0.2261
A_2     C     0.8998     0.8281     0.3585
A_3     C     0.0665     0.6893     0.7742
A_0     C     0.7906     0.715     0.8541
A_3     C     0.7286     0.5543     0.1788
A_0     C     0.5559     0.7555     0.7772
A_0     C     0.5403     0.8512     0.4077
A_0     C     0.8432     0.5144     0.3852
A_3     C     0.2443     0.5024     0.0476
A_1     C     0.4071     0.508     0.1768
A_0     C     0.8091     0.6246     0.1317
A_3     C     0.7962     0.8176     0.2077
A_2     C     0.0038     0.8951     0.4268
A_2     C     0.0496     0.7732     0.3194
A_2     C     0.9311     0.7623     0.2518
A_2     C     0.906     0.5416     0.6021
A_1     C     0.8697     0.1046     0.0644
A_1     C     0.6112     0.4352     0.9184
A_1     C     0.0163     0.3424     0.1379
A_1     C     0.1737     0.7133     0.2619
A_2     C     0.4381     0.2213     0.8076
A_0     C     0.0458     0.5377     0.2728
A_3     C     0.2454     0.0241     0.1909
A_1     C     0.4881     0.9241     0.301
A_0     C     0.0426     0.5662     0.7947
A_1     C     0.0921     0.7462     0.5338
A_2     C     0.9026     0.6878     0.6568
A_1     C     0.0175     0.6458     0.6287
A_2     C     0.4075     0.3559     0.2376
A_1     C     0.4463     0.2898     0.4244
A_2     C     0.2187     0.9154     0.6196
A_0     C     0.4772     0.9619     0.5791
A_0     C     0.3819     0.1061     0.1768
A_2     C     0.6106     0.1483     0.4365
A_0     C     0.2166     0.1949     0.1297
A_3     C     0.0536     0.681     0.9427
A_1     C     0.5162     0.1552     0.9333
A_3     C     0.552     0.8226     0.6275
A_1     C     0.3847     0.5664     0.4452
A_2     C     0.5671     0.3033     0.3794
A_1     C     0.2404     0.8104     0.6347
A_0     C     0.334     0.3648     0.4245
A_0     C     0.2211     0.1473     0.7831
A_1     C     0.6292     0.6486     0.5075
A_2     C     0.0846     0.4963     0.4779
A_1     C     0.0412     0.4426     0.229
A_3     C     0.1653     0.8621     0.9733
A_1     C     0.6991     0.3363     0.7851
A_0     C     0.11     0.6996     0.2657
A_2     C     0.866     0.0091     0.1709
A_0     C     0.351     0.3855     0.226
A_0     C     0.9363     0.8672     0.8303
A_1     C     0.8248     0.7127     0.1132
A_2     C     0.7667     0.0075     0.8591
A_0     C     0.7792     0.8867     0.4578
A_3     C     0.962     0.3173     0.8102
A_2     C     0.3194     0.9551     0.7721
A_2     C     0.7268     0.7858     0.4848
A_3     C     0.1906     0.3877     0.477
A_2     C     0.4675     0.6847     0.0063
A_1     C     0.949     0.6375     0.0099
A_0     C     0.701     0.7977     0.6678
A_1     C     0.5916     0.0421     0.8957
A_0     C     0.7493     0.0209     0.0918
A_2     C     0.5735     0.9665     0.5763
A_3     C     0.1359     0.5049     0.4804
A_1     C     0.4896     0.3327     0.4502
A_3     C     0.4295     0.5027     0.9139
A_0     C     0.8873     0.2785     0.4874
A_2     C     0.9422     0.4421     0.7885
A_3     C     0.2857     0.5164     0.5191
A_0     C     0.7907     0.2189     0.6734
A_2     C     0.5617     0.6184     0.3436
A_3     C     0.5115     0.9346     0.9074
A_1     C     0.4932     0.5246     0.6878
A_0     C     0.5712     0.4625     0.3497
A_2     C     0.0589     0.6627     0.074
A_0     C     0.1203     0.9898     0.9464
A_3     C     0.8761     0.1837     0.7529
A_0     C     0.8764     0.1647     0.038
A_2     C     0.8484     0.9007     0.748
A_0     C     0.0559     0.875     0.3694
A_1     C     0.8944     0.9416     0.6356
A_1     C     0.7324     0.3983     0.2044
A_1     C     0.9447     0.4607     0.0335
A_3     C     0.6113     0.5878     0.9121
A_1     C     0.4037     0.9359     0.5064
A_0     C     0.2028     0.0337     0.7376
A_0     C     0.7661     0.6011     0.5305
A_3     C     0.7638     0.1155     0.1298
A_1     C     0.1627     0.289     0.8556
A_0     C     0.1788     0.2538     0.7107
A_0     C     0.4388     0.4966     0.1479
A_1     C     0.228     0.4824     0.2348
A_1     C     0.7924     0.6681     0.3598
A_0     C     0.0763     0.1762     0.94
A_0     C     0.9093     0.9405     0.7621
A_0     C     0.7668     0.1573     0.8639
A_2     C     0.7181     0.603     0.4881
A_2     C     0.5022     0.5932     0.8629
A_3     C     0.2544     0.3982     0.2581
A_1     C     0.1345     0.989     0.575
A_3     C     0.8688     0.2658     0.8719
A_0     C     0.0592     0.4838     0.4978
A_1     C     0.8224     0.1879     0.038
A_3     C     0.6402     0.4127     0.1031
A_2     C     0.8904     0.1604     0.522
A_3     C     0.116     0.6562     0.277
A_0     C     0.584     0.6769     0.6429
A_2     C     0.2381     0.9161     0.8275
A_3     C     0.7881     0.7049     0.4549
A_1     C     0.5457     0.6648     0.222
A_3     C     0.8302     0.1616     0.0139
A_1     C     0.7708     0.4952     0.1286
A_1     C     0.4002     0.2296     0.9219
A_2     C     0.6911     0.5686     0.892
A_1     C     0.4962     0.1303     0.3164
A_0     C     0.1766     0.8869     0.2628
A_0     C     0.2851     0.042     0.8686
A_3     C     0.4216     0.2845     0.0644
A_2     C     0.4225     0.0613     0.8342
A_3     C     0.0012     0.8921     0.7932
A_1     C     0.7564     0.4281     0.026
A_2     C     0.1057     0.1647     0.0856
A_0     C     0.9415     0.5685     0.1125
A_3     C     0.785     0.1679     0.2771
A_1     C     0.9502     0.8862     0.3456
A_0     C     0.8175     0.2451     0.4867
A_3     C     0.6762     0.7382     0.7478
A_0     C     0.8313     0.0259     0.4277
A_0     C     0.4403     0.3598     0.3772
A_0     C     0.3892     0.5401     0.2124
A_1     C     0.8503     0.376     0.5633
A_2     C     0.6076     0.7134     0.598
A_2     C     0.8508     0.046     0.218
A_2     C     0.1245     0.0606     0.3789
A_3     C     0.6002     0.5845     0.188
A_2     C     0.2674     0.0643     0.6124
A_2     C     0.5249     0.0387     0.0053
A_2     C     0.021     0.7295     0.1215
A_3     C     0.5152     0.1315     0.3113
A_0     C     0.0756     0.8866     0.7792
A_0     C     0.7915     0.4106     0.5872
A_1     C     0.2101     0.6462     0.2271
A_0     C     0.8013     0.7698     0.4875
A_3     C     0.6473     0.0611     0.4217
A_0     C     0.5086     0.4114     0.6006
A_3     C     0.4704     0.5013     0.408
A_0     C     0.6519     0.0248     0.4797
A_1     C     0.6434     0.8426     0.7741
A_2     C     0.5644     0.3589     0.107
A_1     C     0.3937     0.1315     0.3405
A_0     C     0.6522     0.2712     0.5803
A_2     C     0.5331     0.2557     0.1492
A_2     C     0.0443     0.3919     0.2576
A_1     C     0.9926     0.245     0.9728
A_1     C     0.3489     0.4458     0.4694
A_1     C     0.2249     0.1645     0.116
A_1     C     0.6692     0.1757     0.2666
A_0     C     0.192     0.4154     0.1842
A_1     C     0.3442     0.564     0.2516
A_3     C     0.0683     0.7346     0.4505
A_2     C     0.3094     0.5772     0.0254
A_3     C     0.7932     0.0351     0.4217
A_3     C     0.4739     0.2229     0.7022
A_1     C     0.34     0.2324     0.9807
A_2     C     0.0257     0.4729     0.0871
A_2     C     0.2878     0.8288     0.3265
A_2     C     0.1287     0.4713     0.5988
A_1     C     0.7105     0.84     0.4727
A_1     C     0.1627     0.8351     0.479
A_0     C     0.8904     0.9181     0.925
A_3     C     0.9254     0.9912     0.8751
A_0     C     0.573     0.1395     0.7046
A_0     C     0.999     0.0039     0.6043
A_3     C     0.9524     0.6971     0.75
A_3     C     0.6153     0.2003     0.1619
A_0     C     0.4103     0.2318     0.6478
A_3     C     0.8534     0.2832     0.2178
A_2     C     0.5522     0.186     0.1182
A_2     C     0.5328     0.4407     0.8318
A_3     C     0.8762     0.6567     0.6201
A_3     C     0.7032     0.4334     0.9643
A_1     C     0.1322     0.3819     0.8435
A_0     C     0.3574     0.4784     0.3278
A_1     C     0.5016     0.2492     0.0051
A_0     C     0.3238     0.2978     0.8723
A_0     C     0.1168     0.6833     0.2583
A_2     C     0.1948     0.5751     0.7056
A_1     C     0.2244     0.6671     0.1122
A_2     C     0.7186     0.366     0.3913
A_3     C     0.3161     0.7814     0.8285
A_0     C     0.3923     0.5875     0.4353
A_0     C     0.0711     0.1331     0.8686
A_3     C     0.2664     0.2395     0.5287
A_3     C     0.3198     0.6556     0.0414
A_0     C     0.0134     0.3428     0.8775
A_0     C     0.4939     0.4354     0.3974
A_2     C     0.7277     0.9607     0.9928
A_3     C     0.6766     0.6391     0.0494
A_1     C     0.9193     0.2217     0.1249
A_0     C     0.2912     0.9736     0.7289
A_3     C     0.041     0.8239     0.8336
A_2     C     0.0009     0.4839     0.5036
A_2     C     0.1406     0.5524     0.8175
A_1     C     0.5464     0.5642     0.6639
A_0     C     0.9325     0.7027     0.0849
A_1     C     0.7294     0.5742     0.9585
A_3     C     0.5954     0.9189     0.8245
A_1     C     0.2233     0.2091     0.2537
A_3     C     0.9246     0.4749     0.1278
A_3     C     0.7459     0.2664     0.8539
A_0     C     0.0724     0.6688     0.1652
A_3     C     0.608     0.1076     0.0706
A_1     C     0.5784     0.5787     0.713
A_1     C     0.7002     0.5332     0.7418
A_1     C     0.1732     0.2113     0.9222
A_0     C     0.6201     0.7221     0.5821
A_3     C     0.9053     0.8814     0.7545
A_0     C     0.1287     0.2344     0.1987
A_3     C     0.6648     0.6874     0.4303
A_3     C     0.6872     0.847     0.3946
A_3     C     0.109     0.7011     0.6167
A_0     C     0.0319     0.6465     0.4895
A_0     C     0.6178     0.2651     0.7442
A_0     C     0.3734     0.3867     0.9772
A_3     C     0.6032     0.5206     0.76
A_0     C     0.4797     0.1741     0.9309
A_3     C     0.583     0.681     0.7087
A_3     C     0.8811     0.6141     0.4868
A_0     C     0.6907     0.8918     0.6352
A_1     C     0.5524     0.2316     0.1108
A_3     C     0.1898     0.5766     0.6624
A_1     C     0.1018     0.472     0.1428
A_2     C     0.0697     0.8273     0.2317
A_0     C     0.3255     0.3312     0.4167
A_0     C     0.693     0.7256     0.474
A_0     C     0.6523     0.9817     0.7162
A_3     C     0.3154     0.8625     0.4468
A_3     C     0.4004     0.3942     0.0514
A_3     C     0.477     0.2631     0.0293
A_3     C     0.3688     0.8042     0.2711
A_2     C     0.8383     0.3512     0.2768
A_2     C     0.2926     0.4091     0.2018
A_0     C     0.7918     0.7405     0.1156
A_0     C     0.1472     0.5045     0.1805
A_3     C     0.5807     0.5358     0.8184
A_2     C     0.3885     0.4089     0.7866
A_2     C     0.6466     0.3088     0.0797
A_0     C     0.9835     0.2887     0.9534
A_3     C     0.2134     0.4785     0.6062
A_1     C     0.498     0.4547     0.4141
A_0     C     0.7552     0.1893     0.9815
A_1     C     0.5485     0.6123     0.7762
A_1     C     0.841     0.08     0.3448
A_2     C     0.6198     0.5559     0.8793
A_2     C     0.3884     0.4913     0.1543
A_2     C     0.196     0.5022     0.1634
A_2     C     0.1584     0.4415     0.2091
A_3     C     0.0473     0.0161     0.3265
A_1     C     0.2079     0.2196     0.0065
A_1     C     0.6401     0.3056     0.6044
A_2     C     0.7571     0.0255     0.6693
A_0     C     0.6449     0.1035     0.2912
A_1     C     0.6609     0.0241     0.8939
A_1     C     0.5311     0.2935     0.41
A_0     C     0.3604     0.5271     0.0731
A_1     C     0.0464     0.9409     0.8402
A_0     C     0.6779     0.9986     0.9396
A_1     C     0.7208     0.2358     0.6327
A_3     C     0.7439     0.1663     0.9435
A_1     C     0.2646     0.7339     0.1215
A_0     C     0.3625     0.9087     0.1313
A_2     C     0.3709     0.6743     0.472
A_1     C     0.642     0.6712     0.7383
A_3     C     0.4855     0.1717     0.0292
A_0     C     0.2122     0.9288     0.7697
A_0     C     0.3193     0.4837     0.6964
A_3     C     0.2422     0.3456     0.0426
A_3     C     0.0005     0.8977     0.657
A_2     C     0.5937     0.2236     0.6371
A_1     C     0.9506     0.4297     0.9812
A_1     C     0.7663     0.2861     0.9474
A_2     C     0.7491     0.9429     0.9338
A_2     C     0.5568     0.8671     0.8652
A_3     C     0.3967     0.6761     0.8501
A_1     C     0.9732     0.5405     0.581
A_0     C     0.474     0.0154     0.2407
A_1     C     0.5135     0.5904     0.8722
A_0     C     0.7369     0.6499     0.5599
A_3     C     0.8     0.3482     0.0406
A_1     C     0.5497     0.5623     0.6961
A_1     C     0.572     0.3848     0.8383
A_3     C     0.4509     0.0931     0.6557
A_3     C     0.4771     0.1702     0.6007
A_2     C     0.379     0.2324     0.7283
A_2     C     0.7215     0.704     0.6798
A_3     C     0.2919     0.0283     0.3447
A_3     C     0.0224     0.8933     0.911
A_2     C     0.6601     0.235     0.4794
A_3     C     0.9208     0.1496     0.0642
A_1     C     0.7254     0.6869     0.2492
A_3     C     0.5151     0.921     0.3416
A_1     C     0.3049     0.3058     0.2201
A_1     C     0.8344     0.8203     0.2791
A_3     C     0.6672     0.1288     0.6068
A_3     C     0.5046     0.5026     0.766
A_1     C     0.4409     0.8513     0.3008
A_3     C     0.9009     0.9109     0.0561
A_1     C     0.7763     0.1487     0.1365
A_0     C     0.3475     0.4755     0.6065
A_3     C     0.4668     0.523     0.7295
A_0     C     0.1576     0.007     0.318
A_3     C     0.0058     0.269     0.6301
A_3     C     0.5206     0.6787     0.5877
A_0     C     0.1985     0.9023     0.6708
A_3     C     0.7691     0.3843     0.5225
A_1     C     0.4617     0.1915     0.5587
A_3     C     0.3853     0.2235     0.6366
A_2     C     0.1792     0.3431     0.3291
A_2     C     0.3896     0.8937     0.8877
A_2     C     0.0984     0.0799     0.8319
A_2     C     0.9901     0.4608     0.0031
A_3     C     0.9541     0.0859     0.0357
A_1     C     0.4217     0.473     0.7028
A_2     C     0.381     0.6607     0.1039
A_3     C     0.5739     0.1422     0.2331
A_2     C     0.115     0.5141     0.4183
A_2     C     0.3914     0.5009     0.8677
A_0     C     0.3344     0.6259     0.1155
A_1     C     0.059     0.137     0.2863
A_3     C     0.3346     0.1745     0.8585
A_3     C     0.3343     0.8791     0.3751
A_2     C     0.3306     0.7998     0.9316
A_1     C     0.3532     0.7707     0.9358
A_3     C     0.3501     0.251     0.8205
A_2     C     0.6415     0.7098     0.2873
A_3     C     0.6911     0.1977     0.217
A_3     C     0.3022     0.6017     0.6733
A_3     C     0.8657     0.902     0.5652
A_1     C     0.4264     0.2818     0.9943
A_1     C     0.4878     0.7604     0.7339
A_2     C     0.9786     0.4021     0.5718
A_2     C     0.4402     0.3136     0.5164
A_0     C     0.1682     0.4274     0.6547
A_1     C     0.4811     0.5722     0.362
A_0     C     0.4944     0.1389     0.3348
A_1     C     0.1377     0.2521     0.3271
A_3     C     0.1719     0.1042     0.16
A_0     C     0.3251     0.9702     0.3821
A_2     C     0.2654     0.8458     0.5289
A_2     C     0.0775     0.248     0.2438
A_0     C     0.4753     0.094     0.0946
A_1     C     0.2303     0.6813     0.7342
A_3     C     0.8899     0.6032     0.5184
A_1     C     0.4041     0.1641     0.6703
A_0     C     0.5244     0.887     0.2022
A_2     C     0.9914     0.5176     0.4528
A_2     C     0.4285     0.873     0.4319
A_2     C     0.1328     0.577     0.7278
A_0     C     0.7224     0.7477     0.3225
A_3     C     0.7225     0.1939     0.3723
A_0     C     0.1775     0.103     0.1903
A_1     C     0.1517     0.0597     0.8107
A_1     C     0.4446     0.8311     0.3293
A_2     C     0.0114     0.188     0.4106
A_2     C     0.836     0.2858     0.614
A_2     C     0.9392     0.0128     0.8781
A_3     C     0.6688     0.1464     0.3874
A_3     C     0.6318     0.2939     0.7273
A_2     C     0.773     0.6769     0.7996
A_2     C     0.7566     0.8143     0.9932
A_3     C     0.6874     0.2726     0.7275
A_1     C     0.2391     0.5505     0.2046
A_2     C     0.2542     0.1098     0.9197
A_0     C     0.4185     0.9965     0.2054
A_2     C     0.8236     0.8144     0.4703
A_1     C     0.0908     0.6049     0.498
A_3     C     0.6389     0.9286     0.0762
A_3     C     0.3423     0.9113     0.9779
A_3     C     0.0587     0.4779     0.9526
A_2     C     0.9886     0.5513     0.4133
A_0     C     0.903     0.7917     0.6118
A_1     C     0.9802     0.1993     0.0408
A_0     C     0.3318     0.951     0.9184
A_0     C     0.3933     0.7183     0.8307
A_1     C     0.5842     0.2526     0.8561
A_0     C     0.7074     0.2505     0.582
A_0     C     0.5276     0.1141     0.779
A_2     C     0.9025     0.1271     0.9417
A_1     C     0.2684     0.1587     0.0595
A_1     C     0.0934     0.6597     0.3568
A_3     C     0.4395     0.0942     0.0373
A_3     C     0.5613     0.8659     0.2977
A_3     C     0.8809     0.799     0.9802
A_2     C     0.2987     0.9325     0.4999
A_3     C     0.625     0.9714     0.4203
A_2     C     0.5133     0.395     0.6445
A_3     C     0.8134     0.5032     0.4252
A_1     C     0.6981     0.9453     0.8507
A_3     C     0.4989     0.8439     0.4355
A_3     C     0.9135     0.902     0.4071
A_0     C     0.4957     0.5368     0.9532
A_2     C     0.5472     0.8711     0.8455
A_3     C     0.1308     0.912     0.7556
A_0     C     0.3902     0.7527     0.8121
A_0     C     0.8441     0.2435     0.0886
A_2     C     0.2274     0.9318     0.9385
A_0     C     0.3674     0.0293     0.9577
A_1     C     0.3038     0.707     0.8139
A_0     C     0.1653     0.48     0.4613
A_2     C     0.1937     0.2569     0.4173
A_3     C     0.3294     0.2985     0.038
A_2     C     0.3638     0.1357     0.2153
A_0     C     0.3908     0.099     0.1532
A_1     C     0.4203     0.4312     0.389
A_1     C     0.006     0.2645     0.8276
A_0     C     0.1409     0.9714     0.3084
A_1     C     0.9327     0.7544     0.281
A_3     C     0.9048     0.1952     0.2383
A_0     C     0.6319     0.4321     0.4042
A_3     C     0.4768     0.9274     0.7012
A_3     C     0.2289     0.9548     0.9345
A_0     C     0.2151     0.447     0.1741
A_3     C     0.0986     0.384     0.489
A_0     C     0.5097     0.3159     0.2366
A_1     C     0.8164     0.0941     0.7696
A_3     C     0.733     0.6781     0.7662
A_3     C     0.1318     0.141     0.5762
A_0     C     0.5824     0.0534     0.0621
A_3     C     0.7056     0.0737     0.0093
A_2     C     0.1856     0.4294     0.3757
A_1     C     0.5192     0.7857     0.3798
A_2     C     0.0075     0.6695     0.0109
A_1     C     0.8636     0.5531     0.658
A_0     C     0.0903     0.0888     0.4133
A_0     C     0.7934     0.4364     0.8274
A_1     C     0.9035     0.0379     0.1253
A_1     C     0.3135     0.9376     0.769
A_1     C     0.3627     0.1803     0.5197
A_3     C     0.4473     0.7418     0.8322
A_0     C     0.521     0.2117     0.7584
A_1     C     0.2994     0.4248     0.4279
A_1     C     0.3903     0.1848     0.6493
A_3     C     0.0467     0.8418     0.7385
A_0     C     0.4632     0.6491     0.2784
A_1     C     0.0105     0.8058     0.9069
A_3     C     0.4823     0.7971     0.8511
A_1     C     0.755     0.2923     0.7598
A_1     C     0.8984     0.177     0.1755
A_1     C     0.8013     0.5434     0.2612
A_0     C     0.1031     0.5688     0.2867
A_1     C     0.2076     0.9013     0.7693
A_1     C     0.8366     0.8407     0.897
A_3     C     0.7221     0.4877     0.0136
A_0     C     0.0636     0.1639     0.9946
A_3     C     0.2682     0.9505     0.7171
A_3     C     0.7642     0.551     0.4748
A_0     C     0.8171     0.4376     0.7785
A_0     C     0.2034     0.3707     0.5432
A_2     C     0.3962     0.5098     0.2799
A_3     C     0.2475     0.6949     0.1443
A_1     C     0.379     0.2448     0.4318
A_3     C     0.2405     0.9992     0.0796
A_3     C     0.2359     0.5844     0.301
A_0     C     0.839     0.4474     0.0967
A_3     C     0.3924     0.5564     0.9746
A_2     C     0.883     0.6511     0.7656
A_3     C     0.6962     0.4063     0.8262
A_0     C     0.1836     0.7183     0.4101
A_1     C     0.6909     0.5191     0.8764
A_1     C     0.6604     0.3215     0.7031
A_0     C     0.1046     0.8358     0.311
A_0     C     0.3693     0.1334     0.1725
A_0     C     0.6927     0.3213     0.7161
A_2     C     0.3418     0.4568     0.1183
A_0     C     0.7149     0.2984     0.5936
A_3     C     0.4379     0.542     0.844
A_1     C     0.5689     0.8727     0.6496
A_1     C     0.0868     0.5863     0.6726
A_2     C     0.5852     0.8997     0.2785
A_0     C     0.6751     0.4381     0.0386
A_3     C     0.0053     0.9121     0.9288
A_1     C     0.0197     0.0767     0.287
A_2     C     0.7417     0.8234     0.5863
A_3     C     0.0792     0.0433     0.1472
A_0     C     0.4998     0.0902     0.0175
A_1     C     0.9624     0.8638     0.5939
A_1     C     0.6707     0.1705     0.0517
A_1     C     0.2269     0.1901     0.3016
A_0     C     0.1916     0.6349     0.7237
A_3     C     0.6644     0.1256     0.2963
A_0     C     0.4038     0.6574     0.4739
A_1     C     0.979     0.6092     0.9454
A_3     C     0.4229     0.3892     0.3348
A_0     C     0.203     0.4222     0.4785
A_0     C     0.0666     0.3162     0.7041
A_2     C     0.6067     0.7435     0.8603
A_2     C     0.0825     0.278     0.9252
A_3     C     0.2037     0.6289     0.0951
A_1     C     0.9867     0.0224     0.2687
A_2     C     0.9093     0.7975     0.4289
A_2     C     0.5155     0.1421     0.7754
A_1     C     0.9603     0.8437     0.7742
A_3     C     0.1586     0.1806     0.3377
A_3     C     0.6719     0.2913     0.5487
A_0     C     0.3302     0.7332     0.4183
A_3     C     0.276     0.8769     0.3896
A_0     C     0.1591     0.2356     0.4752
A_1     C     0.4121     0.6995     0.5286
A_0     C     0.5281     0.8699     0.5309
A_0     C     0.2049     0.864     0.1989
A_3     C     0.1864     0.1421     0.4739
A_2     C     0.1357     0.9996     0.2717
A_2     C     0.6186     0.8517     0.7078
A_1     C     0.8713     0.6615     0.0818
A_2     C     0.1914     0.6722     0.2025
A_0     C     0.7302     0.8169     0.5058
A_0     C     0.293     0.2314     0.5849
A_3     C     0.5638     0.5594     0.0401
A_0     C     0.2282     0.3284     0.3153
A_2     C     0.8306     0.2354     0.3974
A_3     C     0.537     0.7827     0.7267
A_0     C     0.3113     0.475     0.6285
A_2     C     0.9737     0.4871     0.5632
A_1     C     0.7211     0.8107     0.3179
A_2     C     0.0848     0.0241     0.5389
A_1     C     0.0104     0.2482     0.5959
A_0     C     0.1058     0.9145     0.2328
A_3     C     0.4448     0.6942     0.9753
A_1     C     0.4653     0.2036     0.3264
A_3     C     0.596     0.3429     0.7744
A_2     C     0.5748     0.743     0.8355
A_3     C     0.6588     0.8413     0.6151
A_0     C     0.4519     0.1885     0.3241
A_1     C     0.2829     0.6211     0.8585
A_2     C     0.771     0.4276     0.2216
A_1     C     0.9708     0.5981     0.1538
A_1     C     0.4435     0.0383     0.2739
A_1     C     0.475     0.0294     0.0682
A_3     C     0.6481     0.7755     0.2959
A_1     C     0.6156     0.8901     0.7424
A_2     C     0.1981     0.5804     0.7164
A_3     C     0.8481     0.3871     0.8908
A_2     C     0.3756     0.8853     0.4504
A_3     C     0.5717     0.4806     0.2695
A_3     C     0.322     0.6038     0.4198
A_3     C     0.5765     0.6582     0.537
A_3     C     0.8639     0.2979     0.6839
A_3     C     0.1005     0.3985     0.4941
A_3     C     0.2109     0.9465     0.356
A_0     C     0.2177     0.2781     0.2497
A_3     C     0.973     0.9453     0.5865
A_0     C     0.7375     0.6118     0.7814
A_2     C     0.912     0.7318     0.3715
A_3     C     0.0533     0.8426     0.5424
A_2     C     0.9331     0.8523     0.8898
A_0     C     0.4002     0.8728     0.5862
A_2     C     0.7751     0.3774     0.4631
A_3     C     0.3899     0.5667     0.3739
A_0     C     0.9553     0.0593     0.5766
A_1     C     0.3682     0.6339     0.6774
A_3     C     0.5873     0.2078     0.5847
A_0     C     0.3995     0.2493     0.3056
A_3     C     0.4015     0.3484     0.6279
A_1     C     0.5178     0.8457     0.0967
A_0     C     0.5545     0.0285     0.8174
A_0     C     0.6544     0.8911     0.806
A_0     C     0.7164     0.9435     0.2693
A_2     C     0.0058     0.7565     0.1116
A_3     C     0.0385     0.0613     0.8298
A_3     C     0.6416     0.2426     0.0435
A_2     C     0.9851     0.2464     0.026
A_0     C     0.7906     0.6134     0.0385
A_3     C     0.4364     0.9553     0.3182
A_1     C     0.4417     0.7307     0.1705
A_2     C     0.1402     0.2817     0.2746
A_0     C     0.2424     0.7633     0.7688
A_2     C     0.7802     0.1505     0.7999
A_1     C     0.9632     0.4999     0.7664
A_1     C     0.8676     0.2944     0.9956
A_3     C     0.5567     0.3847     0.1102
A_2     C     0.82     0.5686     0.675
A_2     C     0.38     0.9163     0.241
A_1     C     0.5003     0.8199     0.0965
A_3     C     0.8914     0.3778     0.0424
A_2     C     0.607     0.8244     0.0403
A_3     C     0.1988     0.0688     0.8867
A_3     C     0.3505     0.7205     0.4469
A_3     C     0.0672     0.1494     0.5427
A_2     C     0.2054     0.7134     0.5762
A_1     C     0.1297     0.9012     0.7933
A_3     C     0.7582     0.4847     0.0296
A_0     C     0.9237     0.6406     0.3758
A_0     C     0.5979     0.989     0.5129
A_3     C     0.9455     0.2664     0.0706
A_0     C     0.7049     0.604     0.2021
A_3     C     0.3844     0.7455     0.6979
A_3     C     0.9759     0.5539     0.4542
A_3     C     0.5543     0.9779     0.432
A_0     C     0.4624     0.3839     0.1185
A_3     C     0.6027     0.3498     0.0517
A_2     C     0.9345     0.5431     0.4468
A_2     C     0.623     0.9164     0.8046
A_3     C     0.8392     0.5552     0.217
A_3     C     0.8796     0.9828     0.8773
A_2     C     0.5997     0.5625     0.1415
A_3     C     0.9074     0.9102     0.5271
A_2     C     0.7351     0.0829     0.7144
A_1     C     0.8926     0.1843     0.695
A_0     C     0.6997     0.2214     0.8334
A_1     C     0.9896     0.5307     0.4907
A_2     C     0.1489     0.4684     0.1794
A_2     C     0.4252     0.3209     0.6934
A_1     C     0.411     0.034     0.1943
A_2     C     0.5062     0.1334     0.7406
A_0     C     0.8286     0.0185     0.7038
A_3     C     0.63     0.203     0.061
A_1     C     0.3578     0.0092     0.9205
A_1     C     0.4148     0.3983     0.5259
A_3     C     0.2371     0.2498     0.0616
A_2     C     0.6975     0.9011     0.9785
A_2     C     0.4895     0.3261     0.2622
A_3     C     0.7145     0.9805     0.6938
A_3     C     0.9274     0.599     0.1189
A_2     C     0.4859     0.9636     0.806
A_3     C     0.3132     0.4004     0.3771
A_1     C     0.3755     0.2895     0.3157
A_3     C     0.7532     0.8512     0.728
A_2     C     0.1897     0.8855     0.7514
A_0     C     0.1975     0.6472     0.25
A_3     C     0.6521     0.5683     0.8488
A_0     C     0.0571     0.9565     0.0906
A_1     C     0.7924     0.7535     0.0895
A_2     C     0.5525     0.6156     0.9478
A_3     C     0.5512     0.6791     0.0062
A_1     C     0.4532     0.8073     0.7182
A_2     C     0.5153     0.1527     0.3972
A_0     C     0.0499     0.0467     0.017
A_2     C     0.9263     0.1085     0.8814
A_3     C     0.5559     0.4915     0.3539
A_2     C     0.1276     0.6976     0.5625
A_0     C     0.1201     0.3409     0.3794
A_1     C     0.0974     0.5632     0.3331
A_0     C     0.3556     0.5199     0.3544
A_0     C     0.7313     0.3     0.6558
A_2     C     0.3968     0.2434     0.2224
A_2     C     0.1246     0.4456     0.5768
A_1     C     0.8561     0.8776     0.451
A_1     C     0.1272     0.834     0.6033
A_3     C     0.1951     0.2751     0.8499
A_3     C     0.929     0.1398     0.7589
A_1     C     0.4713     0.9651     0.7874
A_3     C     0.5686     0.263     0.9063
A_2     C     0.8214     0.7904     0.2226
A_0     C     0.335     0.8398     0.9915
A_3     C     0.058     0.8419     0.1669
A_3     C     0.051     0.2167     0.2357
A_2     C     0.0731     0.606     0.0502
A_0     C     0.747     0.2716     0.6645
A_1     C     0.823     0.0045     0.989
A_1     C     0.0175     0.9107     0.7048
A_0     C     0.5224     0.8363     0.2008
A_3     C     0.7174     0.8889     0.7216
A_2     C     0.3025     0.1263     0.3393
A_2     C     0.4258     0.3381     0.2361
A_2     C     0.7511     0.4824     0.32
A_2     C     0.3182     0.5366     0.0512
A_0     C     0.2594     0.6449     0.9781
A_1     C     0.4265     0.5255     0.7071
A_0     C     0.3523     0.4865     0.3882
A_1     C     0.4635     0.9057     0.0891
A_1     C     0.7366     0.7762     0.6614
A_1     C     0.0877     0.1239     0.6288
A_2     C     0.3458     0.9108     0.2179
A_1     C     0.1076     0.7361     0.0998
A_2     C     0.6818     0.5989     0.9684
A_2     C     0.6204     0.4196     0.3624
A_0     C     0.8763     0.3029     0.3362
A_3     C     0.1339     0.3217     0.2878
A_0     C     0.2138     0.046     0.585
A_3     C     0.5049     0.832     0.8622
A_0     C     0.9111     0.159     0.0425
A_0     C     0.2239     0.3758     0.4718
A_1     C     0.9384     0.1984     0.6599
A_2     C     0.9214     0.3573     0.9205
A_1     C     0.475     0.866     0.7434
A_2     C     0.8285     0.3091     0.582
A_1     C     0.9859     0.8322     0.3171
A_2     C     0.9225     0.321     0.0961
A_1     C     0.2448     0.7255     0.6952
A_1     C     0.6276     0.401     0.4717
A_1     C     0.5668     0.0477     0.7568
A_1     C     0.8269     0.0677     0.6327
A_3     C     0.5586     0.1587     0.2918
A_2     C     0.8669     0.7067     0.6444
A_1     C     0.6488     0.1971     0.9913
A_3     C     0.8668     0.0848     0.2698
A_0     C     0.6343     0.0911     0.9942
A_3     C     0.7392     0.9026     0.7264
A_3     C     0.7592     0.1914     0.2274
A_2     C     0.3263     0.7228     0.8223
A_2     C     0.7283     0.0627     0.0828
A_1     C     0.3984     0.842     0.8108
A_0     C     0.5785     0.2208     0.8408
A_3     C     0.143     0.7369     0.3359
A_2     C     0.293     0.0984     0.0524
A_3     C     0.1874     0.0518     0.5164
A_1     C     0.3117     0.3348     0.8438
A_2     C     0.4038     0.2336     0.4074
A_2     C     0.8997     0.0419     0.7497
A_0     C     0.972     0.0165     0.2519
A_0     C     0.249     0.8392     0.1337
A_1     C     0.3076     0.6576     0.4501
A_1     C     0.1227     0.1531     0.2823
A_2     C     0.598     0.5943     0.2981
A_1     C     0.4633     0.7801     0.0135
A_2     C     0.1958     0.1211     0.5211
A_3     C     0.31     0.8446     0.5575
A_2     C     0.8213     0.486     0.9891
A_2     C     0.9365     0.5814     0.0684
A_2     C     0.6951     0.4189     0.4743
A_1     C     0.4426     0.4953     0.448
A_0     C     0.4691     0.4827     0.7085
A_3     C     0.9632     0.354     0.8969
A_2     C     0.5635     0.5487     0.7088
A_0     C     0.7563     0.43     0.0895
A_2     C     0.3318     0.0792     0.0124
A_2     C     0.9627     0.103     0.9991
A_3     C     0.8199     0.288     0.2622
A_3     C     0.6934     0.7791     0.7774
A_2     C     0.9519     0.6956     0.9046
A_0     C     0.765     0.6353     0.0707
A_2     C     0.4568     0.4906     0.3318
A_3     C     0.2685     0.4024     0.4814
A_1     C     0.3449     0.0015     0.2157
A_2     C     0.4741     0.0876     0.7894
A_0     C     0.3031     0.5063     0.3715
A_1     C     0.7225     0.7623     0.6472
A_0     C     0.8827     0.3995     0.0838
A_0     C     0.0714     0.9372     0.9276
A_0     C     0.882     0.9885     0.3522
A_1     C     0.2418     0.3051     0.2713
A_2     C     0.3854     0.7444     0.7488
A_3     C     0.5666     0.2785     0.3697
A_1     C     0.1916     0.7181     0.9118
A_2     C     0.4412     0.2734     0.4245
A_1     C     0.3128     0.1107     0.5079
A_0     C     0.3843     0.5743     0.7261
A_3     C     0.9063     0.5549     0.1185
A_0     C     0.1725     0.675     0.7222
A_3     C     0.9719     0.9463     0.0409
A_1     C     0.9234     0.3812     0.5425
A_3     C     0.2479     0.8915     0.5343
A_1     C     0.7544     0.5714     0.1924
A_0     C     0.8389     0.1206     0.5953
A_2     C     0.5912     0.3262     0.4747
A_1     C     0.7369     0.392     0.9175
A_2     C     0.3082     0.8523     0.5513
A_0     C     0.2571     0.8799     0.9552
A_3     C     0.7316     0.0978     0.2062
A_1     C     0.2502     0.639     0.4598
A_3     C     0.072     0.0158     0.7015
A_2     C     0.3192     0.6826     0.2397
A_0     C     0.6481     0.2037     0.2478
A_3     C     0.8446     0.994     0.8746
A_1     C     0.1226     0.4468     0.6129
A_2     C     0.5962     0.268     0.8424
A_3     C     0.0259     0.8804     0.6646
A_1     C     0.9746     0.5123     0.3242
A_3     C     0.7732     0.1534     0.0035
A_2     C     0.6608     0.2582     0.7987
A_3     C     0.1802     0.4444     0.7452
A_3     C     0.3674     0.9579     0.3535
A_2     C     0.0997     0.6086     0.2122
A_3     C     0.6747     0.8312     0.4591
A_3     C     0.7503     0.4163     0.2836
A_0     C     0.2486     0.1084     0.9917
A_3     C     0.3499     0.1115     0.2396
A_0     C     0.7442     0.7054     0.598
A_2     C     0.1289     0.922     0.8967
A_0     C     0.489     0.2645     0.5516
A_0     C     0.8525     0.5878     0.4918
A_2     C     0.6475     0.6348     0.8166
A_0     C     0.0033     0.3372     0.8398
A_3     C     0.4258     0.5129     0.9899
A_3     C     0.2749     0.5732     0.8984
A_0     C     0.9897     0.666     0.3671
A_1     C     0.9117     0.7944     0.3763
A_1     C     0.359     0.9549     0.8492
A_3     C     0.8879     0.7846     0.3328
A_3     C     0.09     0.1445     0.5486
A_3     C     0.3078     0.0017     0.5701
A_1     C     0.7974     0.1731     0.16
A_0     C     0.1275     0.5041     0.8671
A_1     C     0.8323     0.1328     0.5118
A_0     C     0.9629     0.4376     0.3464
A_1     C     0.4546     0.8384     0.4791
A_3     C     0.3003     0.4908     0.2966
A_0     C     0.3444     0.9812     0.3062
A_2     C     0.9346     0.6379     0.0398
A_0     C     0.6284     0.0498     0.1643
A_2     C     0.3132     0.0914     0.0515
A_1     C     0.4121     0.1315     0.4058
A_0     C     0.0896     0.7583     0.3502
A_0     C     0.9851     0.3192     0.3803
A_1     C     0.3827     0.0931     0.6422
A_1     C     0.6151     0.8135     0.5482
A_2     C     0.5367     0.0727     0.7818
A_2     C     0.596     0.3812     0.2346
A_2     C     0.8937     0.4506     0.4028
A_2     C     0.9323     0.6036     0.8891
A_1     C     0.8413     0.0839     0.0387
A_3     C     0.5541     0.2039     0.6674
A_2     C     0.8791     0.415     0.068
A_2     C     0.043     0.9932     0.8964
A_2     C     0.9593     0.8106     0.4598
A_1     C     0.0197     0.3903     0.2898
A_0     C     0.8799     0.4253     0.3206
A_1     C     0.0157     0.9293     0.6269
A_1     C     0.8153     0.5661     0.794
A_3     C     0.6263     0.9561     0.9363
A_3     C     0.2272     0.4939     0.9614
A_1     C     0.7404     0.8079     0.449
A_1     C     0.4233     0.6358     0.9881
A_3     C     0.9978     0.0614     0.4057
A_2     C     0.5964     0.8577     0.4644
A_1     C     0.4038     0.3085     0.9334
A_0     C     0.8956     0.1875     0.1012
A_0     C     0.7126     0.0001     0.2072
A_1     C     0.0655     0.292     0.5525
A_0     C     0.5221     0.3281     0.1339
A_0     C     0.2522     0.7936     0.4445
A_1     C     0.7899     0.1657     0.3285
A_0     C     0.9306     0.3892     0.0279
A_3     C     0.6354     0.6515     0.813
A_3     C     0.4141     0.0223     0.073
A_0     C     0.036     0.5091     0.3301
A_2     C     0.4771     0.8499     0.8779
A_2     C     0.3435     0.2062     0.8509
A_3     C     0.6769     0.0822     0.6536
A_0     C     0.065     0.5091     0.1857
A_0     C     0.3675     0.3041     0.6443
A_2     C     0.6909     0.415     0.0307
A_1     C     0.8451     0.2304     0.0783
A_2     C     0.5901     0.5957     0.7856
A_3     C     0.5295     0.9484     0.7357
A_1     C     0.8008     0.8388     0.5597
A_1     C     0.7147     0.2246     0.3155
A_2     C     0.9019     0.5176     0.5505
A_2     C     0.3552     0.9768     0.2164
A_0     C     0.262     0.5566     0.1109
A_0     C     0.0881     0.8405     0.7741
A_2     C     0.0453     0.9389     0.0893
A_1     C     0.3298     0.6789     0.7192
A_0     C     0.307     0.7082     0.756
A_0     C     0.4233     0.7178     0.6757
A_1     C     0.9052     0.0041     0.1897
A_3     C     0.6042     0.4743     0.5456
A_2     C     0.6738     0.5331     0.68
A_0     C     0.0646     0.9653     0.5617
A_3     C     0.5607     0.6959     0.4607
A_2     C     0.9468     0.6121     0.9635
A_0     C     0.6628     0.9884     0.956
A_0     C     0.3165     0.5758     0.4642
A_3     C     0.9829     0.9705     0.5866
A_3     C     0.3322     0.0213     0.7141
A_0     C     0.8266     0.4469     0.7457
A_3     C     0.388     0.0492     0.4801
A_2     C     0.1903     0.0751     0.6723
A_3     C     0.9716     0.5141     0.5569
A_1     C     0.2317     0.426     0.7125
A_2     C     0.2586     0.6987     0.1973
A_3     C     0.4707     0.5187     0.9765
A_0     C     0.3767     0.7656     0.6168
A_3     C     0.7091     0.938     0.3439
A_1     C     0.057     0.7254     0.1519
A_3     C     0.6819     0.0884     0.6145
A_0     C     0.0466     0.1496     0.2177
A_1     C     0.8769     0.4499     0.4805
A_0     C     0.7925     0.8322     0.2946
A_0     C     0.0454     0.4616     0.9942
A_1     C     0.1954     0.6753     0.1515
A_0     C     0.3458     0.681     0.151
A_2     C     0.2477     0.9842     0.8796
A_0     C     0.716     0.0517     0.2477
A_1     C     0.8876     0.3842     0.2769
A_2     C     0.6813     0.0771     0.0461
A_2     C     0.6303     0.6512     0.2712
A_2     C     0.3959     0.4401     0.5195
A_2     C     0.7706     0.6343     0.2037
A_2     C     0.3684     0.3593     0.24
A_2     C     0.8718     0.9625     0.5912
A_2     C     0.248     0.5937     0.6319
A_3     C     0.4599     0.4168     0.8447
A_0     C     0.6903     0.5958     0.528
A_3     C     0.0305     0.5229     0.6304
A_3     C     0.76     0.2191     0.9099
A_3     C     0.7703     0.5821     0.9586
A_2     C     0.414     0.8447     0.7255
A_3     C     0.8011     0.7231     0.51
A_0     C     0.366     0.3559     0.9815
A_3     C     0.5223     0.4125     0.698
A_1     C     0.7442     0.2163     0.7233
A_3     C     0.5362     0.5415     0.0335
A_3     C     0.214     0.4507     0.6804
A_1     C     0.9795     0.4463     0.6866
A_3     C     0.9618     0.8911     0.1547
A_3     C     0.9331     0.7612     0.377
A_1     C     0.3244     0.8706     0.9587
A_1     C     0.4969     0.0976     0.075
A_3     C     0.3636     0.5282     0.8812
A_1     C     0.2576     0.6149     0.046
A_1     C     0.0598     0.3694     0.5397
A_3     C     0.7018     0.2769     0.6973
A_3     C     0.6343     0.5055     0.8354
A_3     C     0.022     0.632     0.4308
A_1     C     0.435     0.3017     0.5151
A_0     C     0.446     0.7863     0.5726
A_2     C     0.1974     0.5086     0.0859
A_2     C     0.3637     0.4113     0.3281
A_0     C     0.9245     0.4098     0.8213
A_2     C     0.8754     0.7707     0.4507
A_1     C     0.3107     0.7886     0.1733
A_1     C     0.3108     0.9381     0.0647
A_0     C     0.8495     0.4456     0.8884
A_2     C     0.4212     0.5374     0.4498
A_2     C     0.7802     0.3559     0.4356
A_3     C     0.1644     0.4286     0.781
A_3     C     0.7826     0.681     0.356
A_2     C     0.1901     0.0316     0.4259
A_1     C     0.9452     0.2282     0.2828
A_1     C     0.6553     0.9467     0.7325
A_1     C     0.8214     0.1005     0.8977
A_2     C     0.2077     0.7481     0.6975
A_0     C     0.2341     0.8587     0.7128
A_3     C     0.0446     0.9011     0.7181
A_2     C     0.2889     0.6952     0.085
A_3     C     0.5651     0.2344     0.8011
A_1     C     0.5793     0.9827     0.3027
A_0     C     0.5027     0.9712     0.6987
A_3     C     0.206     0.0423     0.1275
A_3     C     0.9605     0.8322     0.8398
A_3     C     0.4616     0.8874     0.1629
A_2     C     0.7373     0.9397     0.8179
A_0     C     0.8963     0.2397     0.5476
A_3     C     0.5371     0.9967     0.6908
A_0     C     0.058     0.124     0.2666
A_2     C     0.7676     0.5968     0.5488
A_2     C     0.5073     0.442     0.5954
A_1     C     0.5401     0.5752     0.6095
A_2     C     0.1653     0.5315     0.4198
A_2     C     0.6252     0.1765     0.7881
A_0     C     0.0156     0.1324     0.6859
A_1     C     0.8845     0.5929     0.8654
A_0     C     0.001     0.4057     0.1006
A_0     C     0.3573     0.1265     0.442
A_0     C     0.7058     0.7853     0.0347
A_1     C     0.9751     0.4397     0.379
A_3     C     0.3262     0.6126     0.1118
A_0     C     0.8246     0.2454     0.1458
A_1     C     0.2723     0.6686     0.2631
A_0     C     0.4594     0.8444     0.6178
A_0     C     0.1587     0.1888     0.9229
A_0     C     0.9564     0.7233     0.6876
A_2     C     0.9463     0.7633     0.251
A_1     C     0.0379     0.2455     0.8244
A_1     C     0.5092     0.3758     0.2644
A_3     C     0.4172     0.0088     0.882
A_3     C     0.1393     0.4997     0.9253
A_3     C     0.6432     0.6284     0.0608
A_1     C     0.946     0.7849     0.6557
A_1     C     0.0891     0.3025     0.1204
A_0     C     0.3323     0.1403     0.8439
A_0     C     0.1592     0.2501     0.9136
A_0     C     0.7608     0.685     0.7131
A_1     C     0.417     0.6592     0.8817
A_2     C     0.6984     0.927     0.1065
A_1     C     0.7256     0.6099     0.0595
A_3     C     0.418     0.3866     0.5835
A_0     C     0.5775     0.9888     0.3509
A_1     C     0.3527     0.6577     0.0162
A_2     C     0.9513     0.7343     0.507
A_1     C     0.1843     0.1787     0.4463
A_3     C     0.7884     0.9158     0.5039
A_1     C     0.2055     0.6118     0.7551
A_3     C     0.636     0.5409     0.4384
A_3     C     0.2707     0.4878     0.4204
A_2     C     0.4625     0.3898     0.951
A_0     C     0.714     0.8615     0.5674
A_1     C     0.2624     0.9766     0.7305
A_1     C     0.6489     0.9384     0.6978
A_2     C     0.7324     0.45     0.3871
A_3     C     0.4087     0.2981     0.2584
A_0     C     0.0386     0.6136     0.675
A_0     C     0.8612     0.3353     0.139
A_3     C     0.3448     0.5153     0.7941
A_2     C     0.1161     0.6853     0.1747
A_1     C     0.342     0.9699     0.8708
A_1     C     0.502     0.0244     0.983
A_0     C     0.5783     0.7427     0.7367
A_1     C     0.5976     0.7221     0.5628
A_1     C     0.134     0.1257     0.6313
A_2     C     0.418     0.1672     0.4065
A_2     C     0.1221     0.4486     0.3072
A_2     C     0.495     0.6697     0.0191
A_2     C     0.1503     0.2891     0.4685
A_3     C     0.6896     0.08     0.2941
A_1     C     0.2397     0.5242     0.3664
A_0     C     0.745     0.9189     0.4277
A_3     C     0.9294     0.9423     0.2157
A_1     C     0.614     0.1875     0.8596
A_2     C     0.908     0.0248     0.0649
A_3     C     0.3373     0.0362     0.2838
A_0     C     0.0734     0.8107     0.0477
A_2     C     0.4843     0.1501     0.9239
A_0     C     0.28     0.0334     0.2397
A_0     C     0.6637     0.7975     0.582
A_2     C     0.3867     0.4149     0.1188
A_2     C     0.8081     0.8895     0.8655
A_0     C     0.9388     0.0859     0.3619
A_0     C     0.8939     0.4077     0.7353
A_0     C     0.9248     0.9458     0.7687
A_1     C     0.7079     0.4809     0.3091
A_0     C     0.9787     0.3073     0.0932
A_1     C     0.139     0.7     0.8326
A_3     C     0.5351     0.9156     0.9697
A_2     C     0.5931     0.0917     0.8065
A_0     C     0.6245     0.4089     0.6577
A_2     C     0.4963     0.1405     0.4443
A_1     C     0.8964     0.5831     0.1255
A_1     C     0.52     0.9374     0.2888
A_3     C     0.5333     0.7074     0.6288
A_2     C     0.1308     0.1831     0.8686
A_0     C     0.9535     0.3152     0.3303
A_2     C     0.1209     0.6434     0.9359
A_3     C     0.6114     0.169     0.4538
A_1     C     0.3053     0.4754     0.3426
A_1     C     0.396     0.7123     0.5401
A_1     C     0.2964     0.5609     0.3005
A_1     C     0.0577     0.0329     0.0034
A_0     C     0.9073     0.2795     0.5105
A_3     C     0.5339     0.59     0.9262
A_3     C     0.1501     0.9142     0.8703
A_1     C     0.7255     0.1949     0.4334
A_3     C     0.0132     0.7742     0.8703
A_2     C     0.3482     0.4175     0.0579
A_3     C     0.3476     0.4942     0.4433
A_2     C     0.5401     0.0887     0.3091
A_2     C     0.865     0.6629     0.2626
A_3     C     0.1635     0.5436     0.4608
A_0     C     0.4078     0.7805     0.9641
A_1     C     0.5692     0.6386     0.9631
A_1     C     0.2054     0.5542     0.948
A_1     C     0.5315     0.2281     0.0854
A_2     C     0.7538     0.0134     0.6328
A_0     C     0.6206     0.2706     0.4866
A_3     C     0.0476     0.728     0.8375
A_2     C     0.52     0.9866     0.2189
A_3     C     0.2691     0.2078     0.726
A_2     C     0.1432     0.3925     0.8659
A_1     C     0.4273     0.886     0.9925
A_0     C     0.7403     0.0813     0.6447
A_3     C     0.68     0.3828     0.7999
A_1     C     0.1341     0.5991     0.7247
A_3     C     0.9103     0.7665     0.7244
A_0     C     0.9011     0.3058     0.5007
A_0     C     0.1055     0.8284     0.3504
A_1     C     0.3577     0.7212     0.8223
A_3     C     0.2222     0.0592     0.3273
