MAT-79

loop_
_symmetry_equiv_pos_as_xyz
  x,y,z
_cell_length_a          43.7586
_cell_length_b          28.2972
_cell_length_c          49.4078
_cell_angle_alpha       90.0000
_cell_angle_beta        90.0000
_cell_angle_gamma       90.0000
loop_
_atom_site_label
_atom_site_type_symbol
_atom_site_fract_x
_atom_site_fract_y
_atom_site_fract_z
A_2     C     0.9735     0.718     0.3676
A_1     C     0.0412     0.2343     0.4111
A_3     C     0.946     0.8981     0.6252
A_2     C     0.7544     0.2374     0.938
A_3     C     0.4237     0.7705     0.7553
A_2     C     0.9038     0.696     0.8627
A_0     C     0.8133     0.5914     0.0933
A_0     C     0.952     0.9356     0.7785
A_3     C     0.3478     0.4487     0.7974
A_0     C     0.718     0.2275     0.8913
A_2     C     0.6691     0.6881     0.9248
A_3     C     0.4935     0.1678     0.7697
A_1     C     0.6859     0.4575     0.5147
A_1     C     0.19     0.3342     0.2408
A_1     C     0.6345     0.5564     0.9841
A_3     C     0.4242     0.4359     0.551
A_3     C     0.707     0.9995     0.9621
A_3     C     0.1977     0.6689     0.0552
A_0     C     0.3751     0.9048     0.5803
A_2     C     0.9038     0.5888     0.534
A_0     C     0.7403     0.0705     0.8297
A_0     C     0.3066     0.8929     0.4809
A_3     C     0.3929     0.8158     0.3457
A_2     C     0.2522     0.1868     0.5796
A_2     C     0.6518     0.0446     0.6725
A_0     C     0.7404     0.281     0.4609
A_2     C     0.4474     0.1793     0.1208
A_3     C     0.8125     0.2531     0.4047
A_2     C     0.0875     0.256     0.5869
A_2     C     0.6678     0.4097     0.5105
A_0     C     0.8805     0.8238     0.5539
A_3     C     0.6564     0.9865     0.7766
A_3     C     0.1366     0.7728     0.4277
A_3     C     0.7606     0.2329     0.7563
A_0     C     0.3854     0.5186     0.0624
A_2     C     0.856     0.0525     0.4068
A_0     C     0.9653     0.9017     0.1121
A_0     C     0.1077     0.1677     0.196
A_1     C     0.5409     0.2385     0.033
A_3     C     0.6821     0.535     0.0547
A_1     C     0.6904     0.1716     0.2382
A_3     C     0.4266     0.3194     0.0532
A_2     C     0.5077     0.3139     0.2044
A_1     C     0.8965     0.2894     0.2584
A_3     C     0.6681     0.8286     0.933
A_1     C     0.5779     0.128     0.0283
A_1     C     0.6166     0.432     0.8521
A_2     C     0.519     0.7182     0.2095
A_3     C     0.0643     0.5524     0.0586
A_1     C     0.4198     0.4088     0.5345
A_2     C     0.6065     0.9091     0.5597
A_2     C     0.0566     0.0035     0.6653
A_2     C     0.7501     0.8767     0.6581
A_1     C     0.2132     0.3268     0.2043
A_3     C     0.1507     0.281     0.6076
A_3     C     0.1393     0.9629     0.7171
A_3     C     0.6881     0.7411     0.8308
A_1     C     0.4594     0.4069     0.5725
A_1     C     0.1485     0.2074     0.7886
A_1     C     0.8032     0.6336     0.56
A_1     C     0.9131     0.822     0.1345
A_1     C     0.7214     0.3393     0.7365
A_3     C     0.4273     0.8152     0.9564
A_3     C     0.6208     0.0641     0.6505
A_3     C     0.5345     0.5085     0.9971
A_3     C     0.8499     0.1269     0.7119
A_1     C     0.9898     0.5028     0.7229
A_2     C     0.0657     0.4799     0.654
A_1     C     0.8076     0.9207     0.7014
A_0     C     0.0575     0.725     0.5706
A_3     C     0.9934     0.8733     0.9046
A_1     C     0.9995     0.843     0.3279
A_1     C     0.8252     0.2172     0.0885
A_3     C     0.0192     0.3985     0.9776
A_3     C     0.8467     0.4633     0.1521
A_2     C     0.8213     0.8919     0.8237
A_1     C     0.0925     0.7479     0.8549
A_0     C     0.9481     0.1138     0.6697
A_2     C     0.6886     0.5171     0.7022
A_3     C     0.6842     0.1146     0.2081
A_0     C     0.2812     0.9793     0.2243
A_3     C     0.8158     0.8577     0.037
A_2     C     0.1985     0.1461     0.5602
A_3     C     0.7817     0.8396     0.2926
A_1     C     0.7388     0.7195     0.6405
A_3     C     0.7892     0.6377     0.2365
A_0     C     0.2564     0.4209     0.3609
A_1     C     0.7264     0.5159     0.6045
A_3     C     0.7723     0.4431     0.6942
A_1     C     0.4659     0.9373     0.1315
A_3     C     0.4894     0.9362     0.8402
A_3     C     0.1462     0.5616     0.7323
A_3     C     0.9921     0.6155     0.6488
A_2     C     0.6132     0.6555     0.2689
A_0     C     0.6277     0.0332     0.481
A_3     C     0.578     0.0773     0.9852
A_3     C     0.5242     0.1083     0.5731
A_0     C     0.1118     0.5647     0.227
A_2     C     0.477     0.6865     0.1189
A_2     C     0.3929     0.0457     0.1335
A_2     C     0.6284     0.0069     0.4351
A_2     C     0.043     0.2285     0.7951
A_1     C     0.7476     0.8839     0.5534
A_3     C     0.299     0.3712     0.8164
A_1     C     0.4895     0.2578     0.5954
A_3     C     0.1988     0.0285     0.6023
A_0     C     0.1375     0.8703     0.5836
A_0     C     0.7186     0.8854     0.7144
A_2     C     0.1546     0.3159     0.0799
A_2     C     0.1107     0.1426     0.1504
A_0     C     0.8402     0.525     0.5883
A_1     C     0.0889     0.7517     0.1108
A_2     C     0.5133     0.8256     0.5662
A_0     C     0.3604     0.041     0.5244
A_0     C     0.902     0.1699     0.5739
A_2     C     0.8227     0.5518     0.5827
A_1     C     0.4004     0.6921     0.6595
A_2     C     0.1178     0.1862     0.2828
A_0     C     0.6557     0.3565     0.8177
A_1     C     0.3457     0.6269     0.2304
A_3     C     0.8772     0.6014     0.6731
A_3     C     0.0948     0.431     0.7523
A_0     C     0.8973     0.8107     0.1365
A_2     C     0.545     0.1836     0.4837
A_0     C     0.9344     0.4473     0.4541
A_2     C     0.3056     0.3771     0.2558
A_3     C     0.1063     0.0159     0.6202
A_1     C     0.1021     0.0047     0.3572
A_0     C     0.522     0.1618     0.4569
A_2     C     0.4352     0.8577     0.9134
A_3     C     0.4984     0.7075     0.3418
A_1     C     0.3492     0.6794     0.4827
A_3     C     0.7566     0.8244     0.6263
A_1     C     0.3404     0.2794     0.7649
A_1     C     0.1913     0.9811     0.2975
A_0     C     0.0552     0.6459     0.8893
A_3     C     0.4527     0.4656     0.183
A_2     C     0.5699     0.1567     0.4292
A_2     C     0.4327     0.6396     0.4115
A_0     C     0.4716     0.3887     0.913
A_1     C     0.2129     0.0969     0.7172
A_0     C     0.3217     0.4003     0.5894
A_0     C     0.2503     0.0144     0.1454
A_2     C     0.9054     0.813     0.4969
A_3     C     0.5215     0.6198     0.1941
A_2     C     0.4223     0.0593     0.4092
A_0     C     0.7239     0.9837     0.7075
A_3     C     0.9877     0.5562     0.1004
A_3     C     0.9969     0.3389     0.3406
A_0     C     0.7398     0.6086     0.1443
A_2     C     0.0496     0.7773     0.7422
A_1     C     0.5119     0.1208     0.6498
A_3     C     0.4048     0.1402     0.6246
A_3     C     0.5765     0.1678     0.8532
A_3     C     0.9978     0.7771     0.9716
A_2     C     0.6588     0.2095     0.0827
A_1     C     0.7148     0.0133     0.7815
A_2     C     0.1989     0.2155     0.9406
A_2     C     0.1925     0.9802     0.3996
A_2     C     0.8396     0.6343     0.2922
A_3     C     0.9622     0.331     0.5497
A_0     C     0.0284     0.6085     0.9026
A_0     C     0.1924     0.9745     0.9051
A_1     C     0.4571     0.8704     0.2896
A_1     C     0.0522     0.5445     0.9279
A_1     C     0.7245     0.1964     0.3669
A_2     C     0.871     0.6927     0.2144
A_3     C     0.9578     0.6569     0.922
A_3     C     0.3818     0.128     0.9528
A_2     C     0.2535     0.7963     0.6535
A_0     C     0.7458     0.7196     0.0712
A_2     C     0.6041     0.9694     0.6086
A_0     C     0.8447     0.7187     0.9655
A_2     C     0.8824     0.2081     0.2754
A_2     C     0.2914     0.7347     0.0553
A_1     C     0.6477     0.7807     0.9892
A_3     C     0.3755     0.7554     0.5226
A_1     C     0.5908     0.3175     0.4833
A_1     C     0.2449     0.4629     0.9365
A_1     C     0.7542     0.4783     0.6048
A_3     C     0.2303     0.0923     0.1553
A_1     C     0.8879     0.0627     0.4513
A_2     C     0.4163     0.2977     0.6836
A_0     C     0.0477     0.6761     0.349
A_2     C     0.1746     0.5325     0.439
A_2     C     0.6264     0.1157     0.5318
A_2     C     0.0372     0.0823     0.3495
A_0     C     0.5563     0.7867     0.9395
A_1     C     0.9061     0.636     0.5971
A_0     C     0.893     0.3709     0.9088
A_2     C     0.5473     0.035     0.3988
A_0     C     0.7322     0.2849     0.9661
A_1     C     0.218     0.3065     0.4411
A_0     C     0.4629     0.5248     0.7675
A_0     C     0.4268     0.8518     0.3175
A_1     C     0.9559     0.1717     0.1293
A_1     C     0.9683     0.7369     0.3122
A_3     C     0.3726     0.6507     0.2172
A_3     C     0.3319     0.1238     0.1877
A_1     C     0.4871     0.5156     0.8807
A_3     C     0.3324     0.5808     0.3061
A_2     C     0.3663     0.0805     0.1832
A_1     C     0.9025     0.9374     0.6466
A_3     C     0.841     0.437     0.5475
A_1     C     0.7535     0.8124     0.9398
A_2     C     0.7915     0.6414     0.7153
A_1     C     0.1148     0.1995     0.7047
A_1     C     0.7162     0.0128     0.3323
A_3     C     0.9656     0.4107     0.094
A_3     C     0.8096     0.0264     0.4888
A_1     C     0.5256     0.6486     0.8553
A_3     C     0.452     0.3877     0.1346
A_1     C     0.7656     0.3485     0.1555
A_1     C     0.5681     0.5878     0.4204
A_3     C     0.9425     0.0858     0.2556
A_2     C     0.3814     0.6776     0.8426
A_3     C     0.1403     0.3821     0.376
A_2     C     0.313     0.9117     0.1062
A_0     C     0.6026     0.5546     0.2691
A_0     C     0.5757     0.2767     0.6809
A_0     C     0.4756     0.5794     0.9008
A_1     C     0.9114     0.3372     0.371
A_3     C     0.3298     0.367     0.2148
A_0     C     0.8481     0.025     0.0619
A_0     C     0.9584     0.3506     0.3792
A_3     C     0.845     0.6164     0.9653
A_0     C     0.734     0.1717     0.2929
A_2     C     0.4368     0.4278     0.5754
A_3     C     0.968     0.4774     0.4711
A_2     C     0.4605     0.5134     0.8562
A_0     C     0.2849     0.9372     0.3879
A_2     C     0.7737     0.8068     0.1199
A_0     C     0.4524     0.5463     0.6717
A_3     C     0.4665     0.5907     0.8723
A_2     C     0.6408     0.977     0.919
A_2     C     0.4276     0.1149     0.5583
A_1     C     0.8648     0.5774     0.8047
A_1     C     0.7072     0.8401     0.0339
A_0     C     0.745     0.6008     0.7734
A_0     C     0.7609     0.0344     0.158
A_2     C     0.4819     0.2501     0.7551
A_2     C     0.4769     0.5687     0.8725
A_1     C     0.9028     0.6776     0.3532
A_3     C     0.597     0.09     0.0797
A_0     C     0.9973     0.3981     0.0229
A_0     C     0.746     0.4901     0.2925
A_0     C     0.428     0.8015     0.6179
A_3     C     0.2774     0.5245     0.3878
A_3     C     0.6421     0.3642     0.8956
A_0     C     0.3124     0.2034     0.475
A_2     C     0.5147     0.0234     0.39
A_0     C     0.778     0.9747     0.672
A_2     C     0.6913     0.6858     0.7514
A_3     C     0.9572     0.0694     0.9894
A_2     C     0.6014     0.8634     0.4841
A_2     C     0.7462     0.8852     0.8613
A_1     C     0.1731     0.6161     0.1402
A_2     C     0.6612     0.092     0.7574
A_1     C     0.1433     0.7039     0.8445
A_1     C     0.1088     0.4202     0.4481
A_3     C     0.0962     0.5676     0.7001
A_3     C     0.6849     0.5389     0.095
A_3     C     0.8951     0.0419     0.3753
A_0     C     0.4507     0.2904     0.806
A_0     C     0.315     0.7472     0.2988
A_0     C     0.1022     0.1669     0.4308
A_0     C     0.1018     0.0129     0.8265
A_0     C     0.3281     0.3301     0.9495
A_2     C     0.0719     0.4836     0.0778
A_3     C     0.985     0.4522     0.5031
A_3     C     0.8931     0.1373     0.083
A_3     C     0.4482     0.5524     0.7127
A_1     C     0.7104     0.0668     0.8904
A_2     C     0.2355     0.8594     0.1063
A_1     C     0.9648     0.6379     0.4646
A_0     C     0.8546     0.4371     0.647
A_1     C     0.7061     0.8021     0.2756
A_0     C     0.7093     0.1625     0.5874
A_1     C     0.6837     0.5181     0.3794
A_0     C     0.967     0.7625     0.7964
A_3     C     0.6464     0.5576     0.6237
A_0     C     0.0397     0.8518     0.7509
A_3     C     0.3247     0.8824     0.058
A_0     C     0.7043     0.979     0.8805
A_1     C     0.1259     0.4168     0.1013
A_1     C     0.7458     0.4256     0.154
A_0     C     0.8657     0.1905     0.7841
A_3     C     0.9723     0.3847     0.9748
A_0     C     0.2322     0.6355     0.3869
A_0     C     0.3519     0.2775     0.1467
A_2     C     0.3196     0.6803     0.0527
A_0     C     0.9339     0.1589     0.948
A_0     C     0.8674     0.9355     0.6288
A_2     C     0.085     0.6362     0.1964
A_0     C     0.7263     0.9952     0.5534
A_3     C     0.0445     0.9887     0.9093
A_0     C     0.7832     0.155     0.2371
A_0     C     0.3251     0.4832     0.9713
A_2     C     0.3036     0.3894     0.042
A_0     C     0.6139     0.4555     0.9183
A_1     C     0.7737     0.674     0.3832
A_0     C     0.6413     0.3321     0.5647
A_1     C     0.4088     0.1699     0.1664
A_1     C     0.1344     0.1369     0.154
A_0     C     0.1337     0.9783     0.6063
A_1     C     0.7605     0.5207     0.9539
A_1     C     0.0711     0.9895     0.3443
A_3     C     0.9544     0.3328     0.7919
A_2     C     0.0393     0.8803     0.4313
A_0     C     0.0445     0.5076     0.6969
A_3     C     0.2974     0.5768     0.3109
A_3     C     0.1929     0.4239     0.9009
A_2     C     0.6137     0.4134     0.1044
A_1     C     0.3202     0.661     0.5132
A_3     C     0.2576     0.9726     0.4683
A_3     C     0.9307     0.4838     0.0988
A_2     C     0.0388     0.8131     0.1227
A_1     C     0.7673     0.0012     0.7156
A_2     C     0.644     0.1692     0.1642
A_0     C     0.5882     0.1745     0.3098
A_3     C     0.3191     0.5071     0.7498
A_1     C     0.9711     0.0181     0.2682
A_0     C     0.7428     0.1888     0.1761
A_3     C     0.3297     0.1654     0.7135
A_3     C     0.0336     0.6997     0.9554
A_2     C     0.8385     0.2752     0.1479
A_3     C     0.3451     0.5954     0.9708
A_3     C     0.3759     0.1362     0.2073
A_0     C     0.6467     0.7353     0.9012
A_2     C     0.8362     0.3545     0.517
A_3     C     0.4925     0.0141     0.5559
A_1     C     0.0679     0.0337     0.9191
A_1     C     0.9921     0.8458     0.7603
A_2     C     0.2053     0.072     0.1534
A_3     C     0.8245     0.9904     0.498
A_1     C     0.8437     0.7002     0.9697
A_2     C     0.8893     0.7362     0.4821
A_0     C     0.0499     0.9327     0.4165
A_3     C     0.7873     0.5282     0.6044
A_1     C     0.2302     0.1574     0.2109
A_0     C     0.3651     0.5062     0.4501
A_1     C     0.815     0.0381     0.5273
A_0     C     0.2602     0.7613     0.4641
A_2     C     0.1     0.931     0.1324
A_1     C     0.1545     0.8999     0.0036
A_1     C     0.6959     0.6831     0.9441
A_1     C     0.3508     0.1178     0.1005
A_1     C     0.9561     0.0627     0.2677
A_3     C     0.1175     0.4463     0.2176
A_2     C     0.4112     0.282     0.2787
A_3     C     0.863     0.2949     0.4844
A_2     C     0.9203     0.2312     0.5088
A_1     C     0.3107     0.7472     0.538
A_2     C     0.6874     0.7455     0.0089
A_2     C     0.0822     0.1263     0.6837
A_2     C     0.7356     0.7881     0.074
A_0     C     0.653     0.3107     0.1937
A_1     C     0.272     0.088     0.8451
A_3     C     0.9275     0.7468     0.9466
A_0     C     0.1074     0.0425     0.8974
A_2     C     0.6869     0.6735     0.1207
A_1     C     0.0048     0.6134     0.1243
A_3     C     0.5768     0.7472     0.0755
A_2     C     0.7957     0.9675     0.4151
A_2     C     0.7472     0.4065     0.2427
A_0     C     0.5456     0.5438     0.535
A_1     C     0.3071     0.8539     0.5273
A_3     C     0.4527     0.5264     0.2573
A_1     C     0.7678     0.4943     0.8493
A_0     C     0.9096     0.3457     0.0914
A_2     C     0.0109     0.4611     0.7591
A_1     C     0.3537     0.3638     0.8097
A_1     C     0.1296     0.3521     0.5524
A_0     C     0.3425     0.5703     0.8033
A_2     C     0.9332     0.35     0.3703
A_1     C     0.1318     0.2441     0.4339
A_0     C     0.9494     0.7377     0.397
A_3     C     0.933     0.2957     0.4896
A_2     C     0.6583     0.1463     0.2158
A_0     C     0.6941     0.6192     0.9086
A_0     C     0.9425     0.9268     0.4514
A_2     C     0.2191     0.8076     0.5059
A_3     C     0.0215     0.0256     0.2151
A_1     C     0.1865     0.7985     0.4639
A_0     C     0.4686     0.0954     0.4798
A_2     C     0.671     0.9486     0.6528
A_0     C     0.628     0.0179     0.0392
A_1     C     0.3414     0.9498     0.549
A_3     C     0.4966     0.2748     0.4149
A_1     C     0.0341     0.5552     0.7472
A_1     C     0.5705     0.1914     0.3415
A_1     C     0.363     0.2666     0.9488
A_3     C     0.7059     0.3721     0.2154
A_0     C     0.0388     0.351     0.035
A_1     C     0.8932     0.4292     0.7014
A_3     C     0.4121     0.3065     0.6027
A_3     C     0.1167     0.8234     0.6816
A_3     C     0.8796     0.92     0.987
A_3     C     0.2214     0.9133     0.2172
A_2     C     0.3373     0.0285     0.7404
A_3     C     0.8993     0.1695     0.939
A_1     C     0.098     0.5255     0.0259
A_3     C     0.6905     0.699     0.2766
A_3     C     0.4834     0.2252     0.0555
A_2     C     0.0295     0.6095     0.7734
A_1     C     0.7073     0.009     0.2063
A_3     C     0.3575     0.4476     0.8145
A_1     C     0.7783     0.6287     0.6416
A_2     C     0.9953     0.7494     0.9495
A_1     C     0.3235     0.9869     0.1475
A_3     C     0.8233     0.5514     0.9704
A_1     C     0.1318     0.7913     0.3264
A_3     C     0.2184     0.9187     0.2929
A_0     C     0.4088     0.0763     0.5143
A_1     C     0.8347     0.138     0.151
A_3     C     0.0473     0.872     0.3065
A_3     C     0.9787     0.8335     0.7726
A_3     C     0.7068     0.7837     0.5807
A_2     C     0.5483     0.0586     0.0058
A_2     C     0.0715     0.5908     0.3702
A_2     C     0.1581     0.3911     0.5091
A_2     C     0.2222     0.6524     0.2642
A_3     C     0.9431     0.4924     0.8893
A_2     C     0.5263     0.848     0.4282
A_2     C     0.001     0.1522     0.6899
A_3     C     0.0684     0.2511     0.4516
A_2     C     0.753     0.6617     0.3345
A_2     C     0.5458     0.1791     0.788
A_3     C     0.6326     0.6966     0.2415
A_2     C     0.9505     0.1801     0.0504
A_1     C     0.2412     0.5351     0.6722
A_2     C     0.614     0.6127     0.5051
A_2     C     0.0085     0.4352     0.9736
A_1     C     0.4593     0.1576     0.0586
A_3     C     0.1644     0.2103     0.7392
A_2     C     0.3976     0.3601     0.0075
A_0     C     0.0851     0.5252     0.1873
A_0     C     0.4358     0.5817     0.1178
A_3     C     0.1937     0.692     0.6086
A_0     C     0.8328     0.7431     0.5043
A_3     C     0.8443     0.4892     0.1045
A_3     C     0.4783     0.6102     0.9609
A_2     C     0.4467     0.7004     0.0264
A_2     C     0.1137     0.963     0.5157
A_2     C     0.5807     0.8846     0.9572
A_0     C     0.7476     0.5193     0.2547
A_3     C     0.4884     0.2302     0.0547
A_0     C     0.8091     0.1975     0.9477
A_0     C     0.3154     0.015     0.0118
A_0     C     0.0055     0.6851     0.2815
A_0     C     0.5709     0.4727     0.8952
A_1     C     0.628     0.269     0.5342
A_1     C     0.8253     0.3264     0.1685
A_0     C     0.1187     0.9172     0.5565
A_2     C     0.9856     0.4821     0.8586
A_2     C     0.7481     0.2568     0.7039
A_1     C     0.9688     0.5916     0.2719
A_3     C     0.6199     0.095     0.2535
A_0     C     0.2403     0.7548     0.9403
A_0     C     0.9076     0.9441     0.4962
A_2     C     0.0095     0.0054     0.4001
A_3     C     0.9032     0.1151     0.0333
A_2     C     0.582     0.8747     0.1323
A_3     C     0.9596     0.8784     0.5696
A_0     C     0.6665     0.8033     0.8391
A_3     C     0.8756     0.6984     0.877
A_2     C     0.8578     0.2008     0.1549
A_1     C     0.3363     0.6667     0.6976
A_2     C     0.5071     0.8577     0.6218
A_2     C     0.5198     0.7451     0.0492
A_0     C     0.1322     0.1589     0.6838
A_0     C     0.6115     0.6197     0.3399
A_0     C     0.7662     0.7675     0.5046
A_3     C     0.5599     0.331     0.9656
A_3     C     0.3044     0.1485     0.5808
A_1     C     0.23     0.5767     0.2685
A_2     C     0.1373     0.2474     0.9405
A_3     C     0.7508     0.9306     0.1874
A_0     C     0.0426     0.3912     0.0752
A_2     C     0.1602     0.0958     0.9341
A_2     C     0.9146     0.902     0.5529
A_2     C     0.5332     0.6501     0.4825
A_2     C     0.4172     0.7628     0.8488
A_1     C     0.2775     0.241     0.5521
A_2     C     0.224     0.1827     0.9303
A_1     C     0.3338     0.9505     0.9594
A_2     C     0.6961     0.5901     0.5847
A_3     C     0.7284     0.4103     0.1907
A_0     C     0.4085     0.7622     0.2268
A_1     C     0.7785     0.507     0.5387
A_2     C     0.2111     0.5617     0.3002
A_3     C     0.065     0.5075     0.4398
A_3     C     0.3308     0.0088     0.7823
A_0     C     0.8547     0.1436     0.4176
A_2     C     0.0987     0.0033     0.6284
A_0     C     0.0215     0.4289     0.7805
A_3     C     0.8174     0.5233     0.9834
A_2     C     0.3081     0.8706     0.7206
A_1     C     0.5509     0.0035     0.2561
A_3     C     0.3328     0.7271     0.1211
A_3     C     0.1929     0.3934     0.5176
A_1     C     0.6262     0.7472     0.6291
A_0     C     0.0324     0.9832     0.1652
A_3     C     0.0493     0.6749     0.529
A_1     C     0.5097     0.0301     0.692
A_3     C     0.3816     0.649     0.9257
A_3     C     0.9942     0.9857     0.1295
A_0     C     0.9507     0.0744     0.642
A_3     C     0.2477     0.5818     0.3543
A_0     C     0.376     0.6209     0.4984
A_0     C     0.9852     0.6061     0.0261
A_3     C     0.8262     0.5995     0.8284
A_2     C     0.8777     0.527     0.0832
A_3     C     0.6607     0.1154     0.2531
A_1     C     0.7139     0.3382     0.9909
A_0     C     0.1418     0.5793     0.6202
A_1     C     0.4041     0.9094     0.998
A_2     C     0.4256     0.9318     0.6097
A_0     C     0.198     0.8323     0.4548
A_0     C     0.1972     0.3904     0.796
A_2     C     0.1947     0.7659     0.2113
A_0     C     0.9209     0.1618     0.2753
A_3     C     0.6524     0.0466     0.193
A_0     C     0.1383     0.4042     0.5317
A_1     C     0.9257     0.0679     0.6003
A_2     C     0.3581     0.2067     0.4611
A_3     C     0.5761     0.7617     0.4742
A_0     C     0.9985     0.4337     0.7152
A_0     C     0.9086     0.8768     0.0765
A_3     C     0.5673     0.2221     0.1258
A_3     C     0.1089     0.3549     0.3902
A_2     C     0.6269     0.718     0.0099
A_1     C     0.5136     0.7107     0.3356
A_1     C     0.5774     0.3694     0.7331
A_2     C     0.9814     0.6707     0.1936
A_1     C     0.0064     0.6678     0.2617
A_2     C     0.1012     0.7027     0.6537
A_2     C     0.497     0.3086     0.144
A_3     C     0.0512     0.2879     0.1285
A_1     C     0.6362     0.4939     0.8069
A_0     C     0.2146     0.9699     0.2009
A_2     C     0.1377     0.4249     0.3115
A_1     C     0.7175     0.2104     0.5845
A_2     C     0.7758     0.2843     0.2382
A_3     C     0.442     0.5018     0.4628
A_0     C     0.5163     0.3514     0.9755
A_2     C     0.979     0.2324     0.6962
A_1     C     0.022     0.763     0.5965
A_1     C     0.1892     0.7524     0.1522
A_3     C     0.97     0.1648     0.547
A_2     C     0.4234     0.0249     0.3235
A_0     C     0.3132     0.7298     0.0601
A_0     C     0.598     0.1215     0.0395
A_0     C     0.5518     0.3147     0.0838
A_2     C     0.8149     0.1187     0.7734
A_1     C     0.608     0.5159     0.1658
A_1     C     0.5012     0.0934     0.0247
A_2     C     0.7868     0.4911     0.3335
A_0     C     0.6187     0.3106     0.1776
A_2     C     0.6231     0.2687     0.2508
A_1     C     0.7486     0.7901     0.9935
A_1     C     0.5736     0.3625     0.0794
A_0     C     0.3357     0.3973     0.4382
A_0     C     0.6985     0.5309     0.5361
A_2     C     0.1704     0.9805     0.5952
A_3     C     0.9727     0.7115     0.9508
A_3     C     0.0594     0.7962     0.5467
A_3     C     0.411     0.7707     0.5529
A_0     C     0.4747     0.8157     0.9633
A_2     C     0.6572     0.5557     0.5392
A_1     C     0.931     0.6632     0.0352
A_1     C     0.1848     0.6852     0.3836
A_1     C     0.9971     0.2172     0.4164
A_3     C     0.6866     0.9198     0.6994
A_2     C     0.5336     0.313     0.3361
A_2     C     0.6772     0.4141     0.1047
A_0     C     0.5886     0.4012     0.3668
A_3     C     0.209     0.3013     0.5183
A_3     C     0.4415     0.4112     0.4648
A_2     C     0.9823     0.8041     0.3725
A_1     C     0.0263     0.9595     0.6227
A_1     C     0.1371     0.5499     0.0055
A_1     C     0.9879     0.0054     0.2009
A_2     C     0.0563     0.309     0.6615
A_0     C     0.7953     0.2422     0.3555
A_2     C     0.6032     0.4852     0.1725
A_3     C     0.2313     0.9793     0.7399
A_0     C     0.5037     0.6233     0.8289
A_0     C     0.462     0.3072     0.2904
A_0     C     0.6249     0.6295     0.7677
A_1     C     0.033     0.6873     0.3904
A_2     C     0.69     0.5663     0.3406
A_0     C     0.9655     0.957     0.2932
A_2     C     0.719     0.3976     0.6943
A_2     C     0.2047     0.9723     0.642
A_1     C     0.6924     0.0354     0.991
A_3     C     0.0051     0.2266     0.4037
A_2     C     0.8222     0.6886     0.879
A_1     C     0.2831     0.1698     0.3479
A_3     C     0.0479     0.0921     0.1265
A_1     C     0.5575     0.3163     0.5263
A_0     C     0.4308     0.1691     0.5699
A_2     C     0.2228     0.1633     0.27
A_1     C     0.1518     0.9481     0.4526
A_3     C     0.2845     0.8982     0.3986
A_1     C     0.1052     0.2612     0.2467
A_0     C     0.7675     0.3384     0.8736
A_1     C     0.7981     0.943     0.7206
A_3     C     0.5438     0.6428     0.8655
A_0     C     0.7845     0.2766     0.1069
A_3     C     0.0781     0.202     0.4618
A_0     C     0.8657     0.9527     0.6214
A_1     C     0.3664     0.9934     0.9643
A_3     C     0.1264     0.1005     0.2125
A_1     C     0.0179     0.063     0.8397
A_0     C     0.6857     0.7569     0.5039
A_3     C     0.8166     0.3086     0.7572
A_0     C     0.5883     0.7996     0.1894
A_3     C     0.7779     0.252     0.5221
A_1     C     0.1008     0.2578     0.748
A_0     C     0.8022     0.643     0.3042
A_1     C     0.1938     0.6972     0.0091
A_2     C     0.1923     0.8208     0.7549
A_1     C     0.0991     0.3741     0.158
A_2     C     0.7792     0.8919     0.4613
A_3     C     0.865     0.6989     0.82
A_2     C     0.7491     0.9906     0.9996
A_3     C     0.5471     0.5424     0.5279
A_0     C     0.5304     0.1009     0.8032
A_1     C     0.544     0.7177     0.1684
A_0     C     0.0826     0.9026     0.9694
A_0     C     0.9829     0.0969     0.1221
A_0     C     0.8252     0.5046     0.0706
A_0     C     0.6935     0.5659     0.0911
A_0     C     0.0873     0.1769     0.2484
A_0     C     0.7699     0.9179     0.2634
A_0     C     0.0408     0.9993     0.5591
A_0     C     0.308     0.3827     0.1246
A_0     C     0.499     0.4868     0.9026
A_0     C     0.9541     0.6664     0.9594
A_0     C     0.8017     0.256     0.1161
A_0     C     0.7261     0.2042     0.5344
A_0     C     0.2782     0.5457     0.236
A_0     C     0.7411     0.2157     0.267
A_0     C     0.3238     0.9554     0.2591
A_0     C     0.1826     0.3345     0.8651
A_0     C     0.97     0.217     0.1293
A_0     C     0.9581     0.2286     0.5021
A_0     C     0.4089     0.7831     0.6492
A_0     C     0.6988     0.2119     0.7941
A_0     C     0.7609     0.6298     0.6354
A_0     C     0.8336     0.2739     0.575
A_0     C     0.8489     0.5802     0.5539
A_0     C     0.9319     0.3817     0.6837
A_0     C     0.664     0.0092     0.201
A_0     C     0.5846     0.2791     0.1356
A_0     C     0.407     0.8536     0.0185
A_0     C     0.3277     0.368     0.798
A_0     C     0.3919     0.4507     0.7235
A_0     C     0.0363     0.1802     0.8377
A_0     C     0.1049     0.134     0.1221
A_0     C     0.3791     0.3319     0.1988
A_0     C     0.8699     0.1978     0.95
A_0     C     0.1357     0.0885     0.9103
A_0     C     0.8864     0.983     0.7188
A_0     C     0.5339     0.6881     0.0425
A_0     C     0.4043     0.1464     0.5575
A_0     C     0.3857     0.8505     0.9818
A_0     C     0.1464     0.9717     0.4276
A_0     C     0.1378     0.0821     0.6885
A_0     C     0.9321     0.4139     0.0486
A_0     C     0.8453     0.516     0.9663
A_0     C     0.9218     0.4539     0.7864
A_0     C     0.7139     0.2523     0.708
A_0     C     0.8518     0.6318     0.5429
A_0     C     0.876     0.5976     0.9501
A_0     C     0.4642     0.1751     0.3644
A_0     C     0.5127     0.483     0.4303
A_0     C     0.9004     0.628     0.2524
A_0     C     0.8386     0.9171     0.0333
A_0     C     0.5845     0.2193     0.2553
A_0     C     0.9433     0.9649     0.6529
A_0     C     0.8957     0.3098     0.2245
A_0     C     0.4081     0.5583     0.2779
A_0     C     0.0827     0.1012     0.057
A_0     C     0.4331     0.2754     0.0007
A_0     C     0.8757     0.6281     0.3749
A_0     C     0.08     0.1661     0.3208
A_0     C     0.171     0.3126     0.3697
A_0     C     0.8771     0.6471     0.0153
A_0     C     0.0414     0.2495     0.7119
A_0     C     0.4792     0.4369     0.1399
A_0     C     0.9258     0.0312     0.0321
A_0     C     0.983     0.119     0.7028
A_0     C     0.4644     0.1605     0.8618
A_0     C     0.6229     0.483     0.3746
A_0     C     0.1641     0.2358     0.2095
A_0     C     0.5984     0.6129     0.6193
A_0     C     0.6228     0.3248     0.9509
A_0     C     0.8242     0.0013     0.386
A_0     C     0.859     0.4391     0.0546
A_0     C     0.1962     0.9294     0.0652
A_0     C     0.8441     0.8897     0.2617
A_0     C     0.6129     0.8519     0.2198
A_0     C     0.9395     0.7474     0.7781
A_0     C     0.6212     0.1468     0.0007
A_0     C     0.0197     0.5526     0.9704
A_0     C     0.8946     0.7091     0.0322
A_0     C     0.6316     0.8945     0.8362
A_0     C     0.7923     0.3456     0.0926
A_0     C     0.5417     0.6201     0.9582
A_0     C     0.3232     0.1926     0.6647
A_0     C     0.6531     0.1841     0.9491
A_0     C     0.4311     0.6586     0.6776
A_0     C     0.7444     0.0762     0.5787
A_0     C     0.3406     0.0944     0.0226
A_0     C     0.059     0.5765     0.7567
A_0     C     0.6308     0.8461     0.1679
A_0     C     0.5233     0.3093     0.6084
A_0     C     0.6753     0.6866     0.0528
A_0     C     0.6761     0.2411     0.6595
A_0     C     0.8512     0.1637     0.9373
A_0     C     0.9887     0.6856     0.8141
A_0     C     0.3411     0.1224     0.8431
A_0     C     0.4848     0.5123     0.5002
A_0     C     0.0056     0.1352     0.9012
A_0     C     0.9024     0.0671     0.5779
A_0     C     0.0723     0.3864     0.4186
A_0     C     0.0102     0.9186     0.221
A_0     C     0.0742     0.8373     0.77
A_0     C     0.6816     0.9689     0.0675
A_0     C     0.7312     0.4774     0.1422
A_0     C     0.6491     0.0514     0.88
A_0     C     0.9675     0.9045     0.8236
A_0     C     0.8639     0.831     0.8115
A_0     C     0.1574     0.264     0.1178
A_0     C     0.8091     0.2942     0.7623
A_0     C     0.6924     0.2386     0.6617
A_0     C     0.8692     0.6751     0.1136
A_0     C     0.6064     0.9202     0.9419
A_0     C     0.7569     0.4127     0.5892
A_0     C     0.1853     0.1008     0.2333
A_0     C     0.0018     0.1712     0.4924
A_0     C     0.6517     0.9291     0.7162
A_0     C     0.9287     0.7761     0.0428
A_0     C     0.1058     0.1019     0.9502
A_0     C     0.9528     0.1767     0.8866
A_0     C     0.4472     0.6521     0.0838
A_0     C     0.4196     0.7648     0.3118
A_0     C     0.427     0.2799     0.3634
A_0     C     0.8147     0.9999     0.569
A_0     C     0.7352     0.5033     0.2029
A_0     C     0.2328     0.8415     0.4837
A_0     C     0.9451     0.2465     0.8821
A_0     C     0.0734     0.4391     0.6748
A_0     C     0.6445     0.9665     0.1338
A_0     C     0.7835     0.6481     0.4334
A_0     C     0.5536     0.8302     0.2933
A_0     C     0.1698     0.7544     0.3847
A_0     C     0.3829     0.388     0.4046
A_0     C     0.3413     0.7511     0.5459
A_0     C     0.919     0.1626     0.8507
A_0     C     0.7037     0.0282     0.0581
A_0     C     0.4875     0.2289     0.8775
A_0     C     0.0594     0.7636     0.3284
A_0     C     0.2893     0.5808     0.2555
A_0     C     0.912     0.5784     0.1139
A_0     C     0.1849     0.7827     0.3794
A_0     C     0.947     0.346     0.3903
A_0     C     0.0356     0.8774     0.3128
A_0     C     0.3631     0.7753     0.4703
A_0     C     0.0113     0.7222     0.8745
A_0     C     0.8779     0.3694     0.5237
A_0     C     0.5537     0.2565     0.5612
A_0     C     0.271     0.4401     0.8711
A_0     C     0.0474     0.4881     0.4038
A_0     C     0.3782     0.7562     0.1661
A_0     C     0.6856     0.2178     0.1844
A_0     C     0.952     0.208     0.8779
A_0     C     0.7595     0.9327     0.8701
A_0     C     0.9406     0.6019     0.182
A_0     C     0.7037     0.9866     0.0297
A_0     C     0.6739     0.3876     0.8156
A_0     C     0.5231     0.3411     0.662
A_0     C     0.6701     0.1918     0.2766
A_0     C     0.64     0.8244     0.7913
A_0     C     0.9765     0.2787     0.61
A_0     C     0.6002     0.4574     0.5749
A_0     C     0.9652     0.5453     0.3906
A_0     C     0.7077     0.7555     0.1331
A_0     C     0.4653     0.8922     0.1875
A_0     C     0.3652     0.4911     0.4192
A_0     C     0.6269     0.0795     0.6993
A_0     C     0.4334     0.7129     0.27
A_0     C     0.667     0.4121     0.532
A_0     C     0.2508     0.5525     0.5518
A_0     C     0.552     0.5753     0.2911
A_0     C     0.0426     0.1929     0.176
A_0     C     0.4953     0.3846     0.7666
A_0     C     0.9178     0.9012     0.8312
A_0     C     0.3818     0.6989     0.903
A_0     C     0.6623     0.5888     0.2905
A_0     C     0.0177     0.6814     0.3035
A_0     C     0.0064     0.9299     0.0767
A_0     C     0.8894     0.5167     0.1736
A_0     C     0.9862     0.5006     0.8269
A_0     C     0.7731     0.7226     0.811
A_0     C     0.9206     0.7956     0.9742
A_0     C     0.9148     0.0742     0.1331
A_0     C     0.1106     0.1225     0.9464
A_0     C     0.8039     0.4658     0.1904
A_0     C     0.9907     0.7669     0.2859
A_0     C     0.8947     0.5897     0.9553
A_0     C     0.5121     0.4464     0.0913
A_0     C     0.0645     0.8432     0.1992
A_0     C     0.0306     0.4488     0.3262
A_0     C     0.2516     0.7486     0.4107
A_0     C     0.5516     0.7285     0.9597
A_0     C     0.1147     0.4352     0.1734
A_0     C     0.5323     0.2075     0.0901
A_0     C     0.5002     0.6172     0.6566
A_0     C     0.562     0.6052     0.3071
A_0     C     0.5917     0.6094     0.6692
A_0     C     0.0975     0.2789     0.3911
A_0     C     0.0334     0.3175     0.4713
A_0     C     0.9423     0.9947     0.685
A_0     C     0.3153     0.5513     0.6093
A_0     C     0.4757     0.7599     0.5751
A_0     C     0.9264     0.733     0.0922
A_0     C     0.6939     0.2142     0.475
A_0     C     0.7672     0.8135     0.5993
A_0     C     0.9753     0.1749     0.3802
A_0     C     0.0234     0.3939     0.3347
A_0     C     0.6225     0.4986     0.2423
A_0     C     0.9378     0.1931     0.0518
A_0     C     0.7136     0.8664     0.8046
A_0     C     0.9294     0.48     0.5312
A_0     C     0.7161     0.7044     0.269
A_0     C     0.1437     0.9005     0.6577
A_0     C     0.3902     0.5869     0.3874
A_0     C     0.4298     0.1359     0.1679
A_0     C     0.6384     0.8444     0.0129
A_0     C     0.6951     0.6942     0.9678
A_0     C     0.7523     0.093     0.578
A_0     C     0.1164     0.3828     0.7945
A_0     C     0.403     0.287     0.4837
A_0     C     0.8077     0.4368     0.6067
A_0     C     0.7255     0.7504     0.1945
A_0     C     0.1878     0.0907     0.2147
A_0     C     0.5668     0.0723     0.9349
A_0     C     0.5141     0.3068     0.8387
A_0     C     0.9521     0.0616     0.0044
A_0     C     0.899     0.4836     0.7833
A_0     C     0.5823     0.9232     0.9904
A_0     C     0.2605     0.4968     0.6079
A_0     C     0.8676     0.5252     0.4823
A_0     C     0.1917     0.1548     0.9032
A_0     C     0.345     0.9144     0.0484
A_0     C     0.8432     0.6336     0.6091
A_0     C     0.1711     0.762     0.7415
A_0     C     0.9445     0.3014     0.1422
A_0     C     0.592     0.5514     0.6297
A_0     C     0.8297     0.2371     0.3157
A_0     C     0.627     0.8755     0.5557
A_0     C     0.7029     0.8716     0.5255
A_0     C     0.9552     0.5667     0.5054
A_0     C     0.203     0.393     0.1772
A_0     C     0.1518     0.615     0.6311
A_0     C     0.7402     0.9799     0.3806
A_0     C     0.9445     0.2399     0.6053
A_0     C     0.8768     0.509     0.0176
A_0     C     0.2515     0.8219     0.2696
A_0     C     0.2615     0.4439     0.155
A_0     C     0.2768     0.1917     0.1329
A_0     C     0.6581     0.5357     0.7993
A_0     C     0.2483     0.8556     0.6645
A_0     C     0.1012     0.7944     0.3111
A_0     C     0.6934     0.0732     0.677
A_0     C     0.6591     0.0094     0.8696
A_0     C     0.4307     0.894     0.0784
A_0     C     0.9866     0.8403     0.5046
A_0     C     0.362     0.0538     0.3802
A_0     C     0.3491     0.3325     0.3474
A_0     C     0.8499     0.0939     0.1171
A_0     C     0.458     0.4296     0.0852
A_0     C     0.4929     0.8692     0.9952
A_0     C     0.0612     0.4385     0.6551
A_0     C     0.0223     0.1052     0.1105
A_0     C     0.1014     0.712     0.1105
A_0     C     0.9912     0.417     0.0093
A_0     C     0.148     0.1989     0.58
A_0     C     0.7915     0.643     0.6655
A_0     C     0.2519     0.4158     0.9766
A_0     C     0.4179     0.1041     0.8499
A_0     C     0.1396     0.8113     0.2104
A_0     C     0.2162     0.5075     0.8802
A_0     C     0.5193     0.191     0.8382
A_0     C     0.9297     0.099     0.5809
