MAT-8

loop_
_symmetry_equiv_pos_as_xyz
  x,y,z
_cell_length_a          27.19
_cell_length_b          40.2428
_cell_length_c          36.7032
_cell_angle_alpha       90.0000
_cell_angle_beta        90.0000
_cell_angle_gamma       90.0000
loop_
_atom_site_label
_atom_site_type_symbol
_atom_site_fract_x
_atom_site_fract_y
_atom_site_fract_z
A_1     C     0.2001     0.2942     0.9472
A_1     C     0.6924     0.3599     0.7519
A_0     C     0.9429     0.7255     0.6388
A_0     C     0.0486     0.4068     0.9112
A_0     C     0.4164     0.4953     0.0585
A_1     C     0.5442     0.6951     0.4141
A_1     C     0.3654     0.1204     0.7777
A_0     C     0.826     0.0436     0.9137
A_2     C     0.8557     0.7549     0.3946
A_0     C     0.5009     0.8283     0.2661
A_2     C     0.5647     0.01     0.4018
A_1     C     0.4131     0.6623     0.1606
A_2     C     0.7114     0.1206     0.9513
A_2     C     0.4875     0.0338     0.3097
A_0     C     0.969     0.9269     0.5609
A_3     C     0.2387     0.3221     0.9181
A_1     C     0.2391     0.8801     0.3605
A_2     C     0.881     0.3205     0.4053
A_2     C     0.7713     0.2277     0.8601
A_0     C     0.5668     0.1833     0.0709
A_3     C     0.9343     0.2417     0.7451
A_2     C     0.1369     0.7057     0.2692
A_0     C     0.689     0.2253     0.9897
A_0     C     0.7306     0.3325     0.4201
A_1     C     0.954     0.4836     0.7451
A_0     C     0.7025     0.0423     0.7264
A_2     C     0.4127     0.3963     0.1441
A_1     C     0.5337     0.7576     0.4709
A_1     C     0.6483     0.1289     0.2359
A_0     C     0.0329     0.0051     0.4581
A_3     C     0.4405     0.3404     0.9792
A_3     C     0.9527     0.0292     0.9018
A_0     C     0.768     0.2632     0.0627
A_3     C     0.0986     0.7267     0.0591
A_0     C     0.2201     0.5202     0.0826
A_1     C     0.4742     0.0192     0.5434
A_0     C     0.6648     0.9584     0.6686
A_1     C     0.3953     0.1929     0.5523
A_3     C     0.1504     0.3311     0.8037
A_1     C     0.7776     0.7392     0.0832
A_2     C     0.9347     0.7636     0.6106
A_3     C     0.0635     0.021     0.2694
A_1     C     0.7172     0.6804     0.9231
A_0     C     0.7029     0.6438     0.1708
A_0     C     0.3179     0.3788     0.846
A_3     C     0.3224     0.9835     0.6917
A_3     C     0.8342     0.9263     0.7757
A_2     C     0.2708     0.6118     0.4647
A_0     C     0.9435     0.9655     0.1733
A_0     C     0.7426     0.3656     0.4433
A_0     C     0.8121     0.4205     0.0142
A_2     C     0.9612     0.3962     0.2615
A_3     C     0.9865     0.2462     0.569
A_0     C     0.9166     0.0988     0.5311
A_1     C     0.3583     0.5334     0.9328
A_0     C     0.955     0.9527     0.4889
A_1     C     0.7081     0.2124     0.4481
A_2     C     0.7476     0.1159     0.3413
A_2     C     0.2475     0.1228     0.0996
A_2     C     0.7727     0.9097     0.4664
A_1     C     0.8051     0.7067     0.6129
A_3     C     0.6034     0.0096     0.8029
A_1     C     0.8334     0.8234     0.2913
A_0     C     0.1921     0.311     0.7551
A_1     C     0.6701     0.8046     0.6594
A_2     C     0.5235     0.7801     0.2745
A_0     C     0.2098     0.9679     0.2561
A_0     C     0.3459     0.5749     0.5046
A_2     C     0.9233     0.7126     0.8034
A_2     C     0.9058     0.5551     0.5955
A_0     C     0.416     0.753     0.2582
A_3     C     0.651     0.2158     0.8227
A_3     C     0.174     0.5714     0.3535
A_1     C     0.9318     0.2681     0.9894
A_0     C     0.0268     0.7018     0.6517
A_3     C     0.0258     0.2953     0.3122
A_3     C     0.5592     0.8529     0.3613
A_1     C     0.911     0.2271     0.0889
A_2     C     0.8519     0.2097     0.365
A_2     C     0.3415     0.1678     0.4928
A_0     C     0.8315     0.6362     0.3506
A_0     C     0.8611     0.5003     0.8341
A_3     C     0.2328     0.5048     0.0094
A_2     C     0.5212     0.2855     0.3478
A_2     C     0.7182     0.8318     0.8418
A_1     C     0.0383     0.8124     0.8804
A_3     C     0.1462     0.5784     0.9211
A_3     C     0.6251     0.2198     0.9921
A_3     C     0.8364     0.2651     0.3996
A_0     C     0.102     0.2352     0.2861
A_1     C     0.9194     0.0356     0.3283
A_2     C     0.0086     0.6261     0.6777
A_2     C     0.148     0.7337     0.5051
A_3     C     0.7954     0.843     0.8155
A_1     C     0.5361     0.6964     0.3892
A_0     C     0.4259     0.3211     0.4622
A_2     C     0.3443     0.4792     0.3512
A_2     C     0.7119     0.1808     0.4453
A_1     C     0.5062     0.3284     0.9357
A_2     C     0.3229     0.3472     0.2802
A_3     C     0.151     0.7814     0.5112
A_0     C     0.5881     0.3197     0.0186
A_1     C     0.0748     0.9609     0.1898
A_1     C     0.8645     0.6833     0.2095
A_2     C     0.6259     0.6632     0.4442
A_2     C     0.2527     0.4544     0.8354
A_3     C     0.2363     0.8449     0.9905
A_2     C     0.5689     0.7218     0.7207
A_3     C     0.8986     0.7844     0.9219
A_2     C     0.9114     0.5137     0.5084
A_3     C     0.8001     0.0985     0.5829
A_2     C     0.5045     0.9181     0.5345
A_1     C     0.3669     0.1601     0.6698
A_1     C     0.47     0.1227     0.588
A_0     C     0.9973     0.5325     0.795
A_2     C     0.5585     0.5806     0.1465
A_1     C     0.6469     0.6655     0.6801
A_2     C     0.6709     0.7387     0.2676
A_2     C     0.0212     0.7727     0.4402
A_0     C     0.6861     0.9046     0.6421
A_0     C     0.4669     0.7317     0.0118
A_3     C     0.0342     0.6894     0.4861
A_3     C     0.062     0.601     0.5763
A_0     C     0.9353     0.3176     0.0396
A_3     C     0.329     0.3451     0.2681
A_1     C     0.5414     0.8151     0.2484
A_2     C     0.3514     0.7667     0.1291
A_3     C     0.7872     0.1591     0.2259
A_1     C     0.6027     0.5528     0.6463
A_0     C     0.9547     0.5721     0.9584
A_3     C     0.857     0.1128     0.1561
A_3     C     0.9164     0.6033     0.7474
A_1     C     0.0829     0.3195     0.2271
A_0     C     0.372     0.0292     0.3548
A_0     C     0.3743     0.556     0.4746
A_3     C     0.7753     0.1097     0.4383
A_1     C     0.5572     0.3606     0.8424
A_1     C     0.3593     0.648     0.4441
A_0     C     0.5756     0.8486     0.0824
A_0     C     0.6665     0.5811     0.0089
A_1     C     0.0586     0.4808     0.976
A_2     C     0.277     0.1211     0.4374
A_2     C     0.1642     0.3708     0.4169
A_0     C     0.7746     0.2522     0.5766
A_1     C     0.4759     0.1208     0.0561
A_2     C     0.7527     0.2895     0.9688
A_2     C     0.069     0.9177     0.6875
A_1     C     0.7169     0.9303     0.2556
A_0     C     0.5798     0.3049     0.642
A_1     C     0.8484     0.0589     0.2208
A_1     C     0.6342     0.1013     0.3287
A_3     C     0.6534     0.072     0.255
A_0     C     0.5026     0.703     0.9687
A_2     C     0.1287     0.6059     0.8654
A_2     C     0.7825     0.7519     0.1367
A_0     C     0.4541     0.161     0.0917
A_2     C     0.4816     0.8374     0.8239
A_2     C     0.7492     0.2644     0.689
A_1     C     0.8876     0.2376     0.4886
A_0     C     0.5063     0.643     0.8572
A_2     C     0.0007     0.013     0.0001
A_3     C     0.0539     0.4266     0.1702
A_3     C     0.4239     0.8159     0.6959
A_3     C     0.2053     0.7419     0.2533
A_0     C     0.4991     0.4948     0.885
A_2     C     0.1412     0.9562     0.4234
A_1     C     0.3151     0.9613     0.1859
A_0     C     0.754     0.0229     0.6898
A_2     C     0.6423     0.9309     0.8896
A_3     C     0.6511     0.6867     0.3451
A_2     C     0.8971     0.3186     0.6456
A_0     C     0.3059     0.5312     0.9645
A_3     C     0.085     0.5978     0.5844
A_1     C     0.5453     0.7011     0.9045
A_3     C     0.6719     0.5987     0.6115
A_3     C     0.5552     0.1313     0.5464
A_0     C     0.751     0.4821     0.5807
A_2     C     0.1222     0.8758     0.2793
A_3     C     0.3909     0.5104     0.2737
A_2     C     0.4633     0.3493     0.0048
A_0     C     0.2131     0.5708     0.3402
A_0     C     0.6728     0.0691     0.9614
A_1     C     0.1873     0.9222     0.6696
A_0     C     0.4249     0.7505     0.9517
A_1     C     0.5807     0.0895     0.2489
A_1     C     0.4313     0.5539     0.1041
A_1     C     0.4294     0.5358     0.2352
A_0     C     0.2067     0.4726     0.0943
A_3     C     0.2148     0.3036     0.7011
A_2     C     0.3091     0.7156     0.2269
A_2     C     0.3089     0.0143     0.4107
A_0     C     0.7977     0.2394     0.5687
A_3     C     0.7253     0.4607     0.0499
A_3     C     0.3808     0.5644     0.574
A_3     C     0.2793     0.6663     0.6133
A_3     C     0.6329     0.8232     0.3711
A_0     C     0.3958     0.9397     0.9156
A_1     C     0.562     0.6166     0.1512
A_3     C     0.5139     0.0873     0.6752
A_0     C     0.7862     0.6523     0.7723
A_2     C     0.256     0.8693     0.1879
A_1     C     0.7423     0.0799     0.2972
A_3     C     0.1276     0.6591     0.4543
A_3     C     0.5047     0.0053     0.8639
A_2     C     0.4678     0.1337     0.6551
A_2     C     0.3869     0.0027     0.505
A_2     C     0.572     0.8411     0.8093
A_1     C     0.0059     0.4851     0.6673
A_2     C     0.4769     0.9391     0.3217
A_0     C     0.1982     0.6456     0.4471
A_3     C     0.8507     0.4059     0.1647
A_0     C     0.9564     0.8894     0.505
A_3     C     0.5611     0.915     0.8145
A_2     C     0.9717     0.4634     0.3501
A_1     C     0.2245     0.4263     0.5589
A_1     C     0.6988     0.514     0.1796
A_3     C     0.3656     0.4427     0.8893
A_0     C     0.782     0.054     0.2945
A_0     C     0.7757     0.862     0.3373
A_1     C     0.8563     0.0065     0.394
A_3     C     0.7108     0.9226     0.8092
A_1     C     0.6137     0.5479     0.6832
A_1     C     0.0362     0.3804     0.0307
A_2     C     0.8754     0.2365     0.3779
A_2     C     0.9684     0.3063     0.2792
A_2     C     0.72     0.7077     0.6548
A_2     C     0.1869     0.2511     0.1155
A_3     C     0.4442     0.9659     0.1026
A_0     C     0.69     0.3046     0.9804
A_1     C     0.0717     0.3187     0.6787
A_3     C     0.151     0.0596     0.7549
A_3     C     0.7279     0.402     0.092
A_2     C     0.1578     0.6867     0.7387
A_1     C     0.8397     0.9692     0.407
A_1     C     0.0494     0.5505     0.1967
A_2     C     0.0445     0.9576     0.385
A_0     C     0.3587     0.3741     0.3654
A_0     C     0.2721     0.23     0.2983
A_2     C     0.0862     0.2527     0.1808
A_1     C     0.4593     0.0609     0.4018
A_2     C     0.2182     0.9393     0.3859
A_0     C     0.7801     0.4389     0.1842
A_0     C     0.5106     0.1699     0.8222
A_2     C     0.5504     0.7477     0.2693
A_2     C     0.2363     0.2943     0.7655
A_3     C     0.5206     0.7825     0.7999
A_3     C     0.3669     0.0522     0.0667
A_2     C     0.2324     0.5002     0.2217
A_3     C     0.5286     0.7379     0.8379
A_0     C     0.5397     0.511     0.326
A_1     C     0.0487     0.3248     0.291
A_3     C     0.3995     0.6754     0.4641
A_2     C     0.067     0.467     0.6573
A_2     C     0.8584     0.0663     0.8178
A_0     C     0.5746     0.9862     0.1838
A_2     C     0.0785     0.7947     0.2523
A_1     C     0.7997     0.4626     0.2271
A_2     C     0.7893     0.4553     0.3238
A_3     C     0.9244     0.8565     0.1993
A_2     C     0.8239     0.2566     0.1386
A_0     C     0.1618     0.5674     0.3174
A_1     C     0.6094     0.4031     0.886
A_2     C     0.5667     0.6653     0.4089
A_3     C     0.9074     0.1122     0.6684
A_0     C     0.5644     0.6674     0.8918
A_2     C     0.1448     0.7106     0.1483
A_0     C     0.3765     0.1946     0.5618
A_0     C     0.0472     0.1446     0.863
A_1     C     0.9499     0.7176     0.5803
A_2     C     0.9958     0.8993     0.0984
A_1     C     0.0197     0.9091     0.4884
A_0     C     0.8998     0.6675     0.57
A_2     C     0.8941     0.8375     0.3697
A_3     C     0.7184     0.6197     0.1469
A_2     C     0.7161     0.8325     0.8954
A_1     C     0.6006     0.8403     0.6561
A_3     C     0.0665     0.2437     0.8504
A_2     C     0.1047     0.5371     0.3382
A_3     C     0.959     0.1084     0.3189
A_0     C     0.1718     0.3556     0.7449
A_3     C     0.4981     0.5244     0.4668
A_2     C     0.6512     0.7669     0.5642
A_3     C     0.9191     0.2183     0.8762
A_0     C     0.6665     0.8534     0.4033
A_3     C     0.0625     0.9708     0.9839
A_2     C     0.0893     0.3115     0.2819
A_3     C     0.2428     0.4958     0.0022
A_1     C     0.6062     0.7329     0.1666
A_0     C     0.5888     0.9857     0.9653
A_3     C     0.6786     0.4846     0.3348
A_2     C     0.9545     0.0522     0.226
A_3     C     0.8783     0.8012     0.313
A_1     C     0.6489     0.2879     0.7425
A_0     C     0.775     0.8602     0.6367
A_0     C     0.7197     0.7426     0.0765
A_1     C     0.8763     0.2539     0.6648
A_1     C     0.6144     0.8244     0.2593
A_1     C     0.353     0.5461     0.3656
A_2     C     0.3264     0.4699     0.803
A_3     C     0.4706     0.884     0.7167
A_3     C     0.5976     0.2773     0.686
A_3     C     0.3327     0.7773     0.7576
A_2     C     0.3034     0.2188     0.3854
A_1     C     0.5098     0.5305     0.2654
A_3     C     0.3202     0.7707     0.7307
A_3     C     0.3791     0.7289     0.3308
A_3     C     0.4428     0.3802     0.7415
A_1     C     0.9194     0.32     0.124
A_3     C     0.5425     0.3772     0.6541
A_0     C     0.0908     0.5545     0.084
A_3     C     0.1954     0.4719     0.1517
A_1     C     0.1312     0.365     0.9686
A_1     C     0.0259     0.6973     0.1057
A_3     C     0.0646     0.8902     0.1725
A_3     C     0.1965     0.3341     0.1124
A_3     C     0.9771     0.3272     0.8587
A_3     C     0.0474     0.6168     0.2593
A_2     C     0.7074     0.7897     0.419
A_0     C     0.0002     0.0071     0.359
A_0     C     0.6626     0.8566     0.2715
A_0     C     0.673     0.7949     0.5219
A_2     C     0.6206     0.7644     0.8626
A_1     C     0.4862     0.2867     0.5744
A_0     C     0.1544     0.4867     0.5025
A_1     C     0.866     0.8842     0.4089
A_2     C     0.766     0.419     0.7928
A_0     C     0.8666     0.3072     0.6139
A_0     C     0.9238     0.2025     0.0893
A_2     C     0.6913     0.293     0.7841
A_0     C     0.1079     0.4072     0.0376
A_2     C     0.0899     0.9772     0.8193
A_1     C     0.4405     0.6348     0.1584
A_1     C     0.7421     0.232     0.7282
A_3     C     0.7511     0.2232     0.7783
A_2     C     0.3929     0.1332     0.3396
A_1     C     0.8454     0.4286     0.5937
A_0     C     0.34     0.7748     0.3607
A_1     C     0.3571     0.4721     0.47
A_2     C     0.4147     0.2741     0.317
A_3     C     0.4194     0.0043     0.7026
A_1     C     0.1084     0.4437     0.4648
A_3     C     0.4961     0.0514     0.725
A_1     C     0.6469     0.8458     0.7043
A_3     C     0.6926     0.9663     0.166
A_0     C     0.5663     0.364     0.2737
A_2     C     0.0934     0.0958     0.2126
A_1     C     0.1907     0.8764     0.4838
A_0     C     0.2046     0.0924     0.8321
A_2     C     0.9414     0.2775     0.1722
A_1     C     0.4136     0.4897     0.8276
A_3     C     0.0946     0.6457     0.4874
A_3     C     0.4057     0.3291     0.4688
A_0     C     0.4599     0.9764     0.6023
A_1     C     0.1369     0.4149     0.7441
A_0     C     0.6745     0.3207     0.0349
A_0     C     0.6195     0.0916     0.9642
A_2     C     0.3121     0.9784     0.9056
A_1     C     0.5295     0.6608     0.974
A_1     C     0.2141     0.6471     0.6545
A_1     C     0.9168     0.6128     0.2245
A_0     C     0.0866     0.3227     0.628
A_2     C     0.3378     0.9569     0.8712
A_2     C     0.5146     0.682     0.8199
A_1     C     0.6694     0.802     0.03
A_0     C     0.8297     0.8684     0.2587
A_1     C     0.6981     0.3791     0.6127
A_2     C     0.0973     0.172     0.4417
A_3     C     0.6104     0.8477     0.6335
A_0     C     0.4314     0.971     0.0049
A_3     C     0.6242     0.6607     0.3461
A_0     C     0.6782     0.4364     0.1446
A_3     C     0.24     0.7932     0.0056
A_3     C     0.4225     0.3468     0.8477
A_3     C     0.7991     0.8826     0.7131
A_1     C     0.7417     0.6707     0.3419
A_3     C     0.627     0.3364     0.3892
A_1     C     0.6285     0.0814     0.573
A_1     C     0.2849     0.3951     0.3215
A_1     C     0.146     0.7161     0.4091
A_2     C     0.7075     0.0023     0.4898
A_1     C     0.6348     0.846     0.5098
A_3     C     0.9201     0.5868     0.1949
A_1     C     0.6022     0.435     0.8562
A_1     C     0.5495     0.7532     0.107
A_0     C     0.8275     0.1212     0.6999
A_1     C     0.3605     0.1749     0.7556
A_0     C     0.8962     0.0238     0.993
A_0     C     0.9066     0.1971     0.9099
A_1     C     0.5508     0.2575     0.0305
A_3     C     0.2191     0.2499     0.133
A_3     C     0.8091     0.2561     0.7991
A_3     C     0.3569     0.8323     0.1927
A_3     C     0.3221     0.0204     0.8442
A_0     C     0.3474     0.7088     0.1607
A_3     C     0.866     0.2735     0.4309
A_1     C     0.9014     0.0026     0.303
A_0     C     0.4964     0.7678     0.3848
A_1     C     0.2224     0.1701     0.0221
A_3     C     0.7109     0.2176     0.3095
A_2     C     0.9092     0.3557     0.5258
A_1     C     0.9959     0.5656     0.9252
A_3     C     0.7143     0.5748     0.4576
A_1     C     0.5059     0.3412     0.6729
A_3     C     0.9481     0.3763     0.6505
A_1     C     0.5924     0.3635     0.5685
A_1     C     0.495     0.498     0.7683
A_2     C     0.8609     0.8157     0.7116
A_2     C     0.7305     0.851     0.471
A_0     C     0.9486     0.8645     0.3453
A_0     C     0.4313     0.3289     0.59
A_3     C     0.7004     0.9157     0.8999
A_1     C     0.8543     0.4933     0.7708
A_1     C     0.3704     0.582     0.4014
A_3     C     0.1305     0.6843     0.2606
A_1     C     0.032     0.5113     0.6897
A_1     C     0.1505     0.7972     0.4108
A_3     C     0.369     0.9224     0.7246
A_3     C     0.8495     0.7715     0.3876
A_1     C     0.7609     0.3111     0.8488
A_1     C     0.2208     0.3302     0.4632
A_3     C     0.6334     0.197     0.4845
A_0     C     0.5758     0.8127     0.3218
A_1     C     0.6028     0.2854     0.3536
A_3     C     0.0395     0.3841     0.5297
A_1     C     0.2703     0.8448     0.2926
A_0     C     0.4504     0.863     0.9813
A_1     C     0.7973     0.0888     0.8363
A_1     C     0.9796     0.2755     0.1049
A_0     C     0.5018     0.396     0.9721
A_0     C     0.8489     0.9061     0.4883
A_3     C     0.6276     0.4446     0.9471
A_3     C     0.0138     0.6998     0.4624
A_1     C     0.9885     0.4093     0.7444
A_0     C     0.8869     0.0902     0.4511
A_3     C     0.401     0.0767     0.0032
A_2     C     0.6075     0.5026     0.7615
A_2     C     0.2558     0.0107     0.2659
A_2     C     0.2467     0.5148     0.1239
A_0     C     0.9468     0.6171     0.4883
A_0     C     0.4975     0.0512     0.7161
A_3     C     0.7929     0.09     0.8816
A_3     C     0.6627     0.2949     0.4211
A_1     C     0.9269     0.9558     0.7749
A_2     C     0.8357     0.1196     0.0346
A_3     C     0.0748     0.0704     0.9113
A_1     C     0.5696     0.0051     0.0046
A_1     C     0.1083     0.4987     0.9739
A_2     C     0.5954     0.1578     0.9096
A_2     C     0.1558     0.3701     0.9163
A_0     C     0.6062     0.908     0.1309
A_0     C     0.3449     0.4876     0.7825
A_2     C     0.3315     0.2508     0.3498
A_2     C     0.5938     0.4467     0.2407
A_2     C     0.3181     0.9543     0.6691
A_3     C     0.672     0.5071     0.0397
A_0     C     0.4757     0.1195     0.2469
A_2     C     0.6987     0.5835     0.3139
A_3     C     0.5446     0.7869     0.0543
A_1     C     0.4634     0.8858     0.5384
A_0     C     0.5559     0.1423     0.7187
A_2     C     0.9876     0.9114     0.6212
A_0     C     0.3314     0.1583     0.2903
A_1     C     0.0309     0.5493     0.622
A_0     C     0.9859     0.4894     0.2593
A_2     C     0.9352     0.7014     0.4386
A_1     C     0.6917     0.8839     0.6374
A_0     C     0.2333     0.0678     0.9077
A_2     C     0.6507     0.7998     0.9159
A_1     C     0.5639     0.3253     0.1346
A_3     C     0.9739     0.6205     0.7207
A_2     C     0.1691     0.2702     0.856
A_2     C     0.9454     0.7379     0.9115
A_3     C     0.7263     0.1724     0.365
A_2     C     0.7347     0.8885     0.29
A_2     C     0.1447     0.2599     0.2866
A_2     C     0.0926     0.1454     0.1518
A_0     C     0.706     0.2003     0.0293
A_1     C     0.6608     0.9979     0.7681
A_1     C     0.348     0.6924     0.7226
A_1     C     0.2048     0.1629     0.2214
A_0     C     0.2341     0.8157     0.1623
A_0     C     0.5395     0.0062     0.8504
A_2     C     0.7339     0.7103     0.9852
A_3     C     0.6234     0.1579     0.9328
A_3     C     0.4328     0.1681     0.4079
A_2     C     0.1096     0.352     0.0663
A_2     C     0.7252     0.7557     0.9226
A_2     C     0.5755     0.5448     0.1803
A_0     C     0.8157     0.1666     0.8502
A_1     C     0.2714     0.1188     0.2295
A_1     C     0.6879     0.9849     0.6366
A_3     C     0.5914     0.8721     0.3598
A_2     C     0.3336     0.6399     0.5285
A_1     C     0.1438     0.6139     0.8421
A_3     C     0.9901     0.8767     0.0687
A_0     C     0.8764     0.3888     0.1251
A_1     C     0.8017     0.6819     0.6687
A_2     C     0.0165     0.0611     0.9371
A_1     C     0.7175     0.3748     0.8497
A_0     C     0.1346     0.8838     0.1201
A_3     C     0.8251     0.3047     0.1521
A_3     C     0.9918     0.454     0.0396
A_0     C     0.8223     0.6594     0.0083
A_2     C     0.6924     0.8148     0.4889
A_2     C     0.7513     0.9808     0.5491
A_0     C     0.4516     0.0544     0.633
A_1     C     0.0822     0.7925     0.3798
A_3     C     0.1197     0.9898     0.4386
A_1     C     0.7637     0.1479     0.6485
A_3     C     0.2439     0.2651     0.4595
A_0     C     0.3241     0.6939     0.2607
A_0     C     0.3302     0.8116     0.3453
A_2     C     0.1927     0.116     0.8897
A_1     C     0.1919     0.9155     0.7876
A_2     C     0.4079     0.3805     0.2626
A_2     C     0.5951     0.3432     0.4291
A_2     C     0.0888     0.8302     0.6923
A_2     C     0.9647     0.0273     0.7387
A_3     C     0.1226     0.5699     0.4535
A_0     C     0.6053     0.501     0.5813
A_1     C     0.1086     0.2528     0.4338
A_3     C     0.1662     0.4633     0.9346
A_3     C     0.5253     0.9798     0.5818
A_0     C     0.7188     0.312     0.93
A_1     C     0.6939     0.6122     0.3153
A_2     C     0.9466     0.924     0.9739
A_3     C     0.9945     0.356     0.6955
A_1     C     0.8649     0.698     0.0575
A_0     C     0.3831     0.9129     0.2299
A_2     C     0.9804     0.8014     0.5295
A_2     C     0.62     0.5072     0.0188
A_0     C     0.8033     0.81     0.0858
A_1     C     0.8532     0.3283     0.3774
A_1     C     0.0528     0.8842     0.3597
A_0     C     0.839     0.0075     0.847
A_3     C     0.8187     0.076     0.4084
A_0     C     0.7049     0.1866     0.9541
A_0     C     0.2516     0.633     0.1185
A_3     C     0.5335     0.7531     0.4055
A_2     C     0.871     0.3274     0.5351
A_2     C     0.6046     0.5693     0.8458
A_2     C     0.011     0.8011     0.5136
A_0     C     0.6467     0.4324     0.8877
A_0     C     0.5683     0.0071     0.8028
A_0     C     0.4199     0.0652     0.4306
A_0     C     0.4319     0.4971     0.446
A_1     C     0.5808     0.1963     0.7006
A_2     C     0.7025     0.6042     0.2757
A_3     C     0.4645     0.252     0.9497
A_0     C     0.9083     0.4904     0.9068
A_0     C     0.5728     0.1418     0.8805
A_1     C     0.2274     0.6438     0.9409
A_1     C     0.0002     0.0196     0.4466
A_0     C     0.0327     0.5234     0.5328
A_2     C     0.5008     0.2626     0.2198
A_3     C     0.0527     0.8861     0.7494
A_2     C     0.6418     0.912     0.3488
A_2     C     0.555     0.0989     0.8048
A_2     C     0.1712     0.6563     0.1115
A_2     C     0.0828     0.2236     0.6157
A_3     C     0.1064     0.8896     0.5778
A_3     C     0.7495     0.3181     0.7474
A_0     C     0.1852     0.5047     0.4603
A_3     C     0.491     0.5088     0.1415
A_0     C     0.9896     0.3175     0.9831
A_1     C     0.1511     0.4829     0.1678
A_3     C     0.0871     0.9375     0.0396
A_3     C     0.0221     0.6379     0.6688
A_3     C     0.835     0.2099     0.7843
A_0     C     0.3926     0.7368     0.4595
A_0     C     0.5448     0.4741     0.1078
A_0     C     0.3966     0.1049     0.4794
A_3     C     0.0738     0.4962     0.8656
A_2     C     0.5491     0.2143     0.6506
A_0     C     0.8211     0.4145     0.1759
A_3     C     0.2901     0.1686     0.8297
A_3     C     0.9622     0.7953     0.3643
A_0     C     0.1658     0.061     0.4894
A_0     C     0.347     0.5721     0.921
A_3     C     0.8359     0.7646     0.0732
A_0     C     0.7624     0.7751     0.8443
A_1     C     0.5671     0.5896     0.3755
A_0     C     0.9488     0.855     0.8414
A_3     C     0.3639     0.2005     0.3394
A_2     C     0.2458     0.6062     0.953
A_1     C     0.4807     0.3709     0.6665
A_1     C     0.2448     0.0972     0.734
A_3     C     0.3318     0.3016     0.6682
A_0     C     0.5331     0.2236     0.3224
A_0     C     0.1289     0.4794     0.3871
A_2     C     0.4819     0.5347     0.848
A_3     C     0.8503     0.7775     0.8629
A_3     C     0.4453     0.7455     0.1332
A_3     C     0.2697     0.6654     0.7378
A_1     C     0.212     0.9359     0.6843
A_2     C     0.0153     0.5698     0.644
A_0     C     0.0891     0.8611     0.3961
A_0     C     0.8237     0.242     0.9056
A_3     C     0.1147     0.7007     0.6074
A_3     C     0.5615     0.1352     0.3113
A_0     C     0.498     0.3812     0.2094
A_3     C     0.9184     0.4546     0.1472
A_2     C     0.523     0.1279     0.5345
A_1     C     0.5164     0.992     0.7803
A_2     C     0.9291     0.5677     0.9762
A_0     C     0.8233     0.4546     0.0195
A_3     C     0.5063     0.1554     0.3569
A_2     C     0.4392     0.4608     0.4213
A_2     C     0.7501     0.2791     0.1683
A_0     C     0.5337     0.5717     0.1189
A_3     C     0.4794     0.5455     0.247
A_3     C     0.4935     0.9228     0.1386
A_3     C     0.0644     0.5052     0.5135
A_3     C     0.8439     0.0581     0.6276
A_0     C     0.244     0.9126     0.3891
A_1     C     0.5525     0.4535     0.3179
A_2     C     0.7838     0.924     0.9876
A_2     C     0.5835     0.6607     0.0505
A_1     C     0.2927     0.7633     0.6773
A_3     C     0.9826     0.1326     0.7323
A_0     C     0.9748     0.2573     0.4828
A_3     C     0.0883     0.5694     0.6815
A_2     C     0.0422     0.0158     0.5385
A_0     C     0.4273     0.3103     0.0331
A_3     C     0.9151     0.1811     0.6173
A_1     C     0.6785     0.4949     0.4858
A_2     C     0.3317     0.6765     0.61
A_1     C     0.9485     0.1539     0.235
A_1     C     0.074     0.3917     0.8622
A_2     C     0.8029     0.2388     0.1372
A_1     C     0.7946     0.3298     0.4044
A_1     C     0.6427     0.0171     0.5274
A_2     C     0.3917     0.3784     0.7001
A_3     C     0.7212     0.4101     0.2785
A_1     C     0.3111     0.7394     0.4794
A_0     C     0.585     0.815     0.4016
A_0     C     0.5625     0.1164     0.106
A_0     C     0.5057     0.4088     0.3771
A_0     C     0.2358     0.4988     0.9736
A_0     C     0.5683     0.1471     0.1056
A_3     C     0.9938     0.1455     0.0237
A_0     C     0.9221     0.0227     0.7749
A_3     C     0.964     0.5023     0.687
A_2     C     0.6154     0.8452     0.5198
A_1     C     0.7965     0.5735     0.0313
A_0     C     0.3148     0.3782     0.4098
A_0     C     0.7838     0.9112     0.3792
A_1     C     0.3315     0.1774     0.5754
A_3     C     0.2247     0.0244     0.9041
A_1     C     0.8959     0.0107     0.8777
A_1     C     0.2537     0.0421     0.9008
A_2     C     0.3042     0.3056     0.886
A_1     C     0.6585     0.0542     0.2034
A_0     C     0.9153     0.9529     0.0351
A_2     C     0.0728     0.16     0.4312
A_1     C     0.7895     0.6288     0.0151
A_3     C     0.509     0.8962     0.8927
A_0     C     0.3626     0.2488     0.8273
A_0     C     0.3126     0.1131     0.1144
A_1     C     0.7262     0.7236     0.4981
A_2     C     0.7568     0.6194     0.4744
A_2     C     0.6749     0.5199     0.479
A_2     C     0.6089     0.6948     0.534
A_0     C     0.1767     0.5193     0.8274
A_0     C     0.0418     0.1205     0.3369
A_3     C     0.6581     0.5313     0.9561
A_3     C     0.7299     0.4459     0.7354
A_3     C     0.1173     0.4595     0.8774
A_1     C     0.668     0.0799     0.0177
A_2     C     0.9402     0.2298     0.508
A_3     C     0.384     0.4889     0.1957
A_3     C     0.2751     0.5668     0.0679
A_3     C     0.2228     0.5858     0.5992
A_3     C     0.1228     0.1877     0.218
A_3     C     0.7925     0.6     0.7926
A_1     C     0.9604     0.4121     0.684
A_1     C     0.9157     0.9571     0.1879
A_2     C     0.2063     0.0179     0.4914
A_2     C     0.4347     0.6752     0.2595
A_3     C     0.7388     0.3492     0.0775
A_1     C     0.9329     0.171     0.9016
A_0     C     0.1254     0.5897     0.7433
A_3     C     0.9669     0.2688     0.4625
A_3     C     0.1277     0.0485     0.9515
A_2     C     0.6208     0.7918     0.4306
A_2     C     0.0632     0.2908     0.6702
A_1     C     0.1979     0.3721     0.2768
A_3     C     0.173     0.7895     0.2959
A_1     C     0.0917     0.4581     0.0451
A_2     C     0.6668     0.1378     0.2324
A_2     C     0.2831     0.1388     0.1247
A_3     C     0.5546     0.0319     0.1038
A_2     C     0.8347     0.3982     0.835
A_1     C     0.2819     0.3479     0.1644
A_2     C     0.1063     0.6751     0.5333
A_0     C     0.1946     0.2364     0.3232
A_2     C     0.4076     0.3151     0.8039
A_0     C     0.842     0.9831     0.3583
A_0     C     0.7503     0.0568     0.1725
A_3     C     0.2353     0.0655     0.9041
A_0     C     0.7267     0.4447     0.4523
A_1     C     0.3592     0.4173     0.2148
A_0     C     0.3487     0.0649     0.3668
A_2     C     0.8599     0.0681     0.1517
A_1     C     0.5489     0.2214     0.8692
A_3     C     0.3062     0.6965     0.1737
A_2     C     0.7334     0.5571     0.7015
A_3     C     0.9657     0.2235     0.883
A_0     C     0.9551     0.6523     0.9042
A_3     C     0.1033     0.8631     0.952
A_3     C     0.9238     0.7759     0.8217
A_2     C     0.8466     0.5649     0.9852
A_3     C     0.6093     0.2959     0.8219
A_0     C     0.3216     0.1218     0.8027
A_3     C     0.2397     0.3633     0.4461
A_2     C     0.0009     0.4857     0.5292
A_0     C     0.0194     0.8801     0.7616
A_3     C     0.6546     0.8872     0.7515
A_0     C     0.9396     0.25     0.2064
A_1     C     0.5748     0.789     0.5002
A_0     C     0.6473     0.4222     0.6978
A_2     C     0.2409     0.2123     0.8243
A_1     C     0.975     0.8836     0.8214
A_2     C     0.0308     0.1701     0.1242
A_0     C     0.1258     0.2195     0.4619
A_1     C     0.4103     0.0529     0.4672
A_1     C     0.3092     0.2056     0.9452
A_0     C     0.0299     0.4142     0.5571
A_1     C     0.8646     0.2708     0.6485
A_1     C     0.7426     0.8018     0.7299
A_2     C     0.1192     0.6396     0.8527
A_2     C     0.0407     0.2879     0.3817
A_1     C     0.8617     0.4905     0.302
A_1     C     0.517     0.8329     0.484
A_0     C     0.0355     0.8105     0.4505
A_2     C     0.0953     0.0063     0.8031
A_0     C     0.374     0.8807     0.4808
A_2     C     0.3653     0.056     0.9881
A_0     C     0.7995     0.3219     0.7841
A_3     C     0.4157     0.2552     0.903
A_0     C     0.6067     0.1328     0.691
A_3     C     0.9136     0.812     0.6024
A_2     C     0.6127     0.6532     0.4245
A_3     C     0.1826     0.0478     0.8617
A_3     C     0.6891     0.9477     0.2916
A_1     C     0.0405     0.6766     0.5143
A_0     C     0.1527     0.6946     0.5103
A_3     C     0.0913     0.7493     0.4152
A_2     C     0.0181     0.9353     0.1483
A_2     C     0.7056     0.1418     0.2223
A_1     C     0.3276     0.0764     0.4599
A_0     C     0.3684     0.7299     0.4355
A_3     C     0.9741     0.1074     0.8645
A_3     C     0.739     0.7057     0.6385
A_1     C     0.7738     0.0828     0.5315
A_1     C     0.8673     0.6007     0.9777
A_1     C     0.5988     0.3943     0.963
A_1     C     0.9568     0.2456     0.5226
A_3     C     0.955     0.8014     0.5795
A_1     C     0.2265     0.7191     0.7428
A_3     C     0.3277     0.7669     0.8027
A_3     C     0.022     0.7475     0.3331
A_3     C     0.3206     0.2009     0.4191
A_3     C     0.6084     0.6588     0.0286
A_0     C     0.2699     0.8004     0.3051
A_0     C     0.158     0.0839     0.5508
A_0     C     0.186     0.0949     0.4823
A_3     C     0.4349     0.0709     0.1466
A_3     C     0.477     0.774     0.1747
A_3     C     0.4874     0.825     0.3453
A_2     C     0.0496     0.6707     0.0153
A_1     C     0.9298     0.3559     0.5446
A_0     C     0.5715     0.9242     0.3472
A_1     C     0.276     0.2214     0.3953
A_2     C     0.5641     0.0774     0.6023
A_1     C     0.5597     0.8592     0.7354
A_3     C     0.8235     0.2688     0.4551
A_0     C     0.3279     0.8597     0.3305
A_0     C     0.4755     0.8692     0.4524
A_3     C     0.6176     0.0565     0.8295
A_2     C     0.1896     0.0917     0.2897
A_2     C     0.4682     0.921     0.1094
A_3     C     0.4196     0.9702     0.0755
A_3     C     0.3477     0.0999     0.53
A_2     C     0.316     0.5692     0.4377
A_1     C     0.4927     0.4092     0.809
A_1     C     0.2637     0.3075     0.097
A_2     C     0.8585     0.5772     0.7947
A_0     C     0.8862     0.4459     0.3266
A_3     C     0.1783     0.0962     0.614
A_0     C     0.2763     0.7793     0.667
A_1     C     0.2331     0.0727     0.2244
A_0     C     0.5545     0.065     0.4143
A_3     C     0.1126     0.8759     0.2704
A_2     C     0.0481     0.8036     0.6614
A_2     C     0.5498     0.2847     0.4366
A_3     C     0.7439     0.3141     0.6369
A_2     C     0.1151     0.5278     0.8757
A_0     C     0.8678     0.9265     0.3862
A_3     C     0.6469     0.7079     0.9193
A_1     C     0.0324     0.8285     0.957
A_3     C     0.6117     0.9877     0.7421
A_2     C     0.1754     0.9964     0.3145
A_3     C     0.6768     0.2162     0.6752
A_0     C     0.8202     0.5617     0.8981
A_0     C     0.0889     0.2354     0.767
A_3     C     0.4271     0.9004     0.4919
A_1     C     0.6676     0.2271     0.8683
A_3     C     0.3088     0.5123     0.4463
A_3     C     0.5671     0.0942     0.4169
A_2     C     0.4617     0.2014     0.0761
A_2     C     0.2764     0.817     0.6383
A_1     C     0.4112     0.6411     0.6487
A_2     C     0.6802     0.9396     0.5204
A_1     C     0.7849     0.5375     0.1606
A_0     C     0.2836     0.5154     0.8917
A_0     C     0.9328     0.1421     0.4212
A_0     C     0.4503     0.2779     0.6749
A_1     C     0.3463     0.5089     0.5267
A_3     C     0.3486     0.2777     0.5613
A_3     C     0.4895     0.1443     0.6129
A_0     C     0.2397     0.4206     0.0463
A_0     C     0.859     0.4633     0.9393
A_2     C     0.5301     0.7518     0.3745
A_3     C     0.8957     0.5321     0.3259
A_3     C     0.5316     0.2011     0.8571
A_0     C     0.2705     0.3632     0.3288
A_3     C     0.4836     0.5903     0.737
A_0     C     0.2682     0.3509     0.8681
A_1     C     0.005     0.1304     0.6817
A_2     C     0.0107     0.1256     0.9683
A_2     C     0.7582     0.0692     0.1433
A_2     C     0.0958     0.088     0.3901
A_0     C     0.3998     0.1227     0.4958
A_1     C     0.865     0.8029     0.2448
A_1     C     0.6148     0.789     0.5627
A_1     C     0.929     0.881     0.2654
A_0     C     0.9404     0.387     0.9614
A_3     C     0.5555     0.4631     0.1785
A_1     C     0.5261     0.067     0.3506
A_1     C     0.2058     0.3999     0.3202
A_0     C     0.7217     0.3778     0.1066
A_3     C     0.4731     0.8261     0.9382
A_3     C     0.7255     0.0204     0.8056
A_3     C     0.4231     0.814     0.7877
A_2     C     0.1673     0.0093     0.1272
A_1     C     0.3082     0.8198     0.1666
A_1     C     0.0455     0.8015     0.3753
A_0     C     0.5597     0.8241     0.7946
A_2     C     0.2389     0.2886     0.4767
A_2     C     0.0968     0.6062     0.0276
A_1     C     0.7643     0.2693     0.2444
A_0     C     0.5315     0.8295     0.2483
A_2     C     0.2222     0.2997     0.249
A_3     C     0.753     0.4629     0.1997
A_1     C     0.4771     0.9269     0.3285
A_2     C     0.5937     0.2155     0.5187
A_3     C     0.4961     0.4644     0.8822
A_3     C     0.4912     0.9349     0.2403
A_1     C     0.9872     0.3068     0.7878
A_3     C     0.0765     0.5766     0.6157
A_2     C     0.7912     0.7254     0.6718
A_2     C     0.0411     0.2791     0.24
A_2     C     0.3911     0.6954     0.2005
A_0     C     0.4511     0.7516     0.0596
A_0     C     0.4774     0.062     0.8197
A_2     C     0.0973     0.2267     0.3345
A_0     C     0.5109     0.9534     0.8563
A_0     C     0.131     0.5931     0.6105
A_3     C     0.2915     0.741     0.2584
A_0     C     0.1622     0.6377     0.7561
A_1     C     0.9595     0.8545     0.8432
A_2     C     0.0055     0.3523     0.2979
A_3     C     0.4932     0.495     0.4622
A_0     C     0.7399     0.8413     0.1449
A_1     C     0.4862     0.7466     0.0316
A_2     C     0.3536     0.4289     0.2602
A_2     C     0.2582     0.5289     0.9691
A_2     C     0.8783     0.7543     0.9667
A_1     C     0.7103     0.4193     0.5609
A_0     C     0.6508     0.9143     0.1186
A_3     C     0.2784     0.896     0.0886
A_0     C     0.3994     0.5125     0.598
A_3     C     0.0177     0.9798     0.218
A_1     C     0.5789     0.9782     0.2758
A_1     C     0.8859     0.4733     0.9635
A_1     C     0.2154     0.2185     0.6494
A_2     C     0.8065     0.8311     0.8347
A_1     C     0.0027     0.3447     0.2541
A_3     C     0.896     0.2488     0.9975
A_1     C     0.7032     0.8759     0.2219
A_3     C     0.4141     0.328     0.0393
A_0     C     0.4727     0.5766     0.213
A_0     C     0.3794     0.5777     0.5729
A_0     C     0.9645     0.9458     0.5651
A_0     C     0.7995     0.7328     0.0411
A_3     C     0.7333     0.7936     0.4504
A_0     C     0.8489     0.1313     0.8402
A_3     C     0.7202     0.3049     0.1188
A_1     C     0.7742     0.8096     0.752
A_2     C     0.3576     0.1219     0.4155
A_3     C     0.7766     0.5733     0.9282
A_2     C     0.7214     0.7803     0.5408
A_1     C     0.6767     0.6021     0.5542
A_2     C     0.4701     0.1272     0.8243
A_3     C     0.5977     0.1764     0.2542
A_0     C     0.5531     0.2234     0.7125
A_3     C     0.4704     0.3015     0.1275
A_1     C     0.9417     0.8084     0.7157
A_3     C     0.6219     0.2894     0.9853
A_3     C     0.0436     0.7446     0.3303
A_2     C     0.4415     0.0963     0.9799
A_1     C     0.2529     0.3781     0.7419
A_0     C     0.4673     0.1427     0.6503
A_3     C     0.9877     0.8306     0.3745
A_3     C     0.2941     0.6317     0.9525
A_1     C     0.2681     0.6697     0.7387
A_3     C     0.5229     0.7216     0.8817
A_0     C     0.4224     0.5166     0.7329
A_0     C     0.7247     0.9456     0.2362
A_3     C     0.2799     0.3417     0.3298
A_1     C     0.2928     0.6494     0.7201
A_1     C     0.5421     0.1771     0.8436
A_0     C     0.4751     0.8697     0.5799
A_1     C     0.4139     0.0784     0.4154
A_2     C     0.322     0.0523     0.3651
A_0     C     0.0704     0.4188     0.1276
A_0     C     0.0615     0.8592     0.3463
A_0     C     0.3303     0.354     0.7534
A_2     C     0.0538     0.965     0.3792
A_2     C     0.287     0.1257     0.4555
A_1     C     0.2957     0.449     0.778
A_2     C     0.641     0.4472     0.2008
A_1     C     0.5585     0.9377     0.7012
A_2     C     0.5801     0.3434     0.932
A_3     C     0.1358     0.9676     0.9327
A_1     C     0.5735     0.9572     0.1291
A_0     C     0.0428     0.4657     0.8712
A_1     C     0.6136     0.9558     0.207
A_3     C     0.3889     0.5259     0.9412
A_0     C     0.4007     0.4851     0.9946
A_0     C     0.0168     0.7136     0.8783
A_1     C     0.5283     0.3221     0.3791
A_3     C     0.9604     0.5566     0.3593
A_3     C     0.9822     0.7624     0.8935
A_1     C     0.4028     0.6052     0.762
A_3     C     0.6157     0.6391     0.694
A_3     C     0.49     0.7614     0.6215
A_2     C     0.4937     0.6417     0.0118
A_3     C     0.3542     0.3176     0.887
A_2     C     0.0019     0.5     0.1465
A_1     C     0.4131     0.8849     0.3596
A_3     C     0.9087     0.5834     0.9413
A_2     C     0.9103     0.854     0.8854
A_1     C     0.3938     0.814     0.4002
A_1     C     0.4756     0.3801     0.9254
A_2     C     0.2277     0.0175     0.0683
A_3     C     0.0296     0.4185     0.6973
A_3     C     0.2193     0.0634     0.4416
A_1     C     0.1919     0.3777     0.5624
A_1     C     0.3231     0.0504     0.1308
A_3     C     0.6605     0.6184     0.3199
A_3     C     0.8989     0.0592     0.47
A_1     C     0.6155     0.9269     0.7499
A_1     C     0.8948     0.1202     0.9699
A_3     C     0.6918     0.3568     0.9565
A_0     C     0.1584     0.8581     0.7993
A_2     C     0.7836     0.1152     0.2675
A_3     C     0.3173     0.3573     0.5375
A_0     C     0.3979     0.2431     0.3863
A_0     C     0.9678     0.6603     0.0003
A_1     C     0.5396     0.5948     0.2754
A_0     C     0.9002     0.1817     0.1483
A_3     C     0.2331     0.4379     0.4539
A_1     C     0.5903     0.3287     0.5457
A_0     C     0.9303     0.5363     0.746
A_0     C     0.9381     0.7325     0.753
A_1     C     0.434     0.715     0.969
A_1     C     0.9763     0.5546     0.0014
A_2     C     0.7616     0.6548     0.377
A_2     C     0.4573     0.5846     0.7398
A_2     C     0.938     0.1554     0.9321
A_0     C     0.3925     0.0802     0.5009
A_2     C     0.8511     0.9845     0.6588
A_2     C     0.9227     0.6845     0.66
A_0     C     0.5645     0.4306     0.6858
A_0     C     0.111     0.8239     0.66
A_0     C     0.3494     0.1766     0.1539
A_1     C     0.568     0.1119     0.1715
A_2     C     0.0789     0.0692     0.1831
A_3     C     0.6248     0.1363     0.828
A_2     C     0.7912     0.9013     0.8018
A_3     C     0.8126     0.5312     0.6442
A_1     C     0.6866     0.8876     0.2842
A_2     C     0.2686     0.061     0.4835
A_0     C     0.5662     0.5385     0.5056
A_3     C     0.2681     0.2332     0.5038
A_3     C     0.0058     0.5254     0.896
A_0     C     0.5227     0.87     0.9398
A_0     C     0.0725     0.6679     0.9838
A_2     C     0.951     0.1129     0.0661
A_0     C     0.3425     0.5753     0.9256
A_1     C     0.4119     0.5678     0.6617
A_1     C     0.625     0.7644     0.9384
A_2     C     0.5675     0.3557     0.9466
A_0     C     0.5482     0.1935     0.3549
A_3     C     0.6115     0.5967     0.4947
A_1     C     0.0375     0.7842     0.6889
A_0     C     0.5643     0.6953     0.977
A_0     C     0.8915     0.8203     0.6983
A_2     C     0.3667     0.0981     0.8261
A_0     C     0.6919     0.4295     0.9727
A_3     C     0.4759     0.8945     0.741
A_2     C     0.69     0.7162     0.1653
A_0     C     0.5066     0.3405     0.5819
A_1     C     0.6861     0.1551     0.5313
A_2     C     0.4507     0.7813     0.4437
A_0     C     0.9484     0.9877     0.1306
A_1     C     0.8695     0.8313     0.7136
A_2     C     0.7537     0.7158     0.2857
A_3     C     0.0313     0.8264     0.5489
A_3     C     0.8189     0.1236     0.8041
A_1     C     0.7117     0.3212     0.6047
A_3     C     0.0871     0.5073     0.6621
A_0     C     0.3813     0.1203     0.6036
A_0     C     0.4946     0.1291     0.5154
A_3     C     0.0391     0.9666     0.6218
A_1     C     0.6558     0.2662     0.2936
A_3     C     0.146     0.422     0.5842
A_0     C     0.3567     0.2648     0.0124
A_1     C     0.9188     0.9846     0.6943
A_0     C     0.3168     0.3479     0.875
A_0     C     0.7829     0.1094     0.5067
A_1     C     0.3059     0.2127     0.792
A_2     C     0.7451     0.7644     0.8145
A_2     C     0.7203     0.7152     0.7418
A_2     C     0.1106     0.7655     0.4485
A_0     C     0.3056     0.5523     0.1671
A_2     C     0.8878     0.58     0.0605
A_0     C     0.3367     0.5421     0.1292
A_3     C     0.3478     0.3471     0.0769
A_2     C     0.3796     0.3981     0.081
A_2     C     0.5435     0.8426     0.4702
A_2     C     0.5991     0.7883     0.2978
A_3     C     0.2011     0.317     0.6146
A_0     C     0.1574     0.6739     0.4311
A_0     C     0.3583     0.3327     0.7297
A_1     C     0.6041     0.7169     0.273
A_1     C     0.993     0.5486     0.003
A_0     C     0.8485     0.9739     0.0492
A_0     C     0.2215     0.6377     0.3316
A_1     C     0.6569     0.3771     0.95
A_1     C     0.6174     0.7954     0.735
A_1     C     0.119     0.3065     0.8885
A_0     C     0.2721     0.2435     0.9608
A_1     C     0.4383     0.9722     0.0693
A_2     C     0.651     0.3265     0.5266
A_0     C     0.9096     0.9667     0.7639
A_2     C     0.3228     0.8159     0.707
A_1     C     0.5339     0.6775     0.3666
A_2     C     0.9945     0.9123     0.2867
A_0     C     0.1275     0.5523     0.9407
A_3     C     0.8038     0.4138     0.4277
A_0     C     0.5475     0.3843     0.6714
A_2     C     0.7793     0.0431     0.5355
A_0     C     0.2914     0.2062     0.2961
A_3     C     0.2654     0.305     0.9518
A_1     C     0.7568     0.3471     0.162
A_1     C     0.3832     0.742     0.8701
A_2     C     0.8509     0.9174     0.6984
A_3     C     0.971     0.4207     0.3283
A_0     C     0.5263     0.7121     0.8324
A_0     C     0.657     0.4123     0.0361
A_3     C     0.1363     0.919     0.5556
A_1     C     0.1294     0.8477     0.7596
A_3     C     0.9555     0.5511     0.2799
A_1     C     0.4627     0.6855     0.9502
A_0     C     0.0426     0.346     0.0122
A_0     C     0.3301     0.1458     0.6203
A_1     C     0.7125     0.3177     0.1718
A_3     C     0.9023     0.991     0.3561
A_2     C     0.6114     0.4037     0.2191
A_3     C     0.6648     0.1224     0.6424
A_0     C     0.6728     0.8855     0.634
A_2     C     0.6401     0.7993     0.3828
A_3     C     0.4357     0.3015     0.8499
A_1     C     0.8451     0.9931     0.6774
A_3     C     0.1813     0.301     0.2277
A_3     C     0.2401     0.9793     0.9951
A_0     C     0.0027     0.4141     0.045
A_3     C     0.5036     0.5652     0.4622
A_1     C     0.5517     0.2023     0.5329
A_0     C     0.0694     0.2219     0.1807
A_3     C     0.8624     0.9914     0.2266
A_3     C     0.7847     0.75     0.751
A_1     C     0.7173     0.3028     0.4658
A_1     C     0.8085     0.1424     0.0194
A_2     C     0.852     0.7581     0.9556
A_2     C     0.4261     0.8243     0.4778
A_1     C     0.6578     0.2038     0.0631
A_0     C     0.1657     0.1077     0.1888
A_1     C     0.306     0.9389     0.9323
A_0     C     0.9111     0.6507     0.307
A_1     C     0.6516     0.83     0.8369
A_3     C     0.825     0.2398     0.4117
A_1     C     0.0083     0.8435     0.6472
A_3     C     0.1301     0.0386     0.5839
A_0     C     0.7212     0.5851     0.3526
A_2     C     0.672     0.467     0.9009
A_2     C     0.4938     0.0173     0.2844
A_0     C     0.1815     0.6911     0.5255
A_3     C     0.9856     0.0464     0.4386
A_2     C     0.7764     0.5055     0.5293
A_3     C     0.5527     0.3153     0.5001
A_2     C     0.3234     0.9111     0.2202
A_2     C     0.9622     0.6359     0.2253
A_3     C     0.0366     0.1401     0.4218
A_3     C     0.6249     0.7944     0.7147
A_0     C     0.0434     0.7825     0.6716
A_1     C     0.0564     0.1799     0.8295
A_0     C     0.3458     0.582     0.209
A_3     C     0.6577     0.1099     0.5348
A_3     C     0.3244     0.4412     0.792
A_1     C     0.1046     0.2247     0.7835
A_2     C     0.3631     0.6099     0.0021
A_0     C     0.7667     0.9873     0.2495
A_0     C     0.0159     0.5688     0.6238
A_2     C     0.988     0.8735     0.7586
A_0     C     0.4528     0.1308     0.0596
A_2     C     0.865     0.2755     0.8553
A_3     C     0.4963     0.1513     0.2485
A_3     C     0.2814     0.1715     0.2079
A_0     C     0.0922     0.5332     0.4355
A_2     C     0.6872     0.1598     0.0701
A_2     C     0.8318     0.9392     0.766
A_2     C     0.4931     0.5748     0.1299
A_1     C     0.6552     0.3542     0.7918
A_2     C     0.9735     0.9876     0.9549
A_3     C     0.2997     0.3413     0.2592
A_2     C     0.7049     0.9866     0.9036
A_0     C     0.2309     0.2369     0.9125
A_3     C     0.5489     0.7727     0.7897
A_2     C     0.0745     0.6633     0.8665
A_3     C     0.9221     0.987     0.0209
A_1     C     0.354     0.2067     0.3503
A_1     C     0.4856     0.3015     0.1457
A_0     C     0.4226     0.8439     0.2376
A_1     C     0.7383     0.3734     0.353
A_1     C     0.6673     0.0761     0.7411
A_1     C     0.4692     0.1666     0.8398
A_0     C     0.2766     0.2595     0.4029
A_2     C     0.1054     0.0354     0.9184
A_3     C     0.7687     0.7418     0.7541
A_3     C     0.3843     0.6731     0.6369
A_1     C     0.2018     0.8991     0.9133
A_3     C     0.6892     0.2141     0.6229
A_0     C     0.4533     0.9546     0.8866
A_3     C     0.8502     0.3929     0.2977
A_2     C     0.3848     0.6829     0.2148
A_3     C     0.964     0.3736     0.0062
A_0     C     0.3557     0.0955     0.6249
A_0     C     0.5697     0.8052     0.668
A_1     C     0.2383     0.7865     0.8795
A_1     C     0.3155     0.5114     0.2916
A_2     C     0.9287     0.8966     0.3912
A_1     C     0.9828     0.323     0.3102
A_1     C     0.827     0.3375     0.0213
A_0     C     0.9017     0.542     0.8362
A_2     C     0.1213     0.9837     0.2923
A_2     C     0.3812     0.2056     0.5651
A_2     C     0.0044     0.8506     0.5242
A_2     C     0.3938     0.8676     0.6445
A_0     C     0.0872     0.8461     0.9751
A_3     C     0.4056     0.1528     0.8225
A_0     C     0.0002     0.2793     0.1067
A_3     C     0.3734     0.6891     0.7053
A_1     C     0.9778     0.0282     0.241
A_1     C     0.0866     0.6438     0.3707
A_2     C     0.8563     0.1252     0.0569
A_0     C     0.0485     0.6523     0.9489
A_3     C     0.0817     0.0463     0.8079
A_2     C     0.9806     0.2933     0.7091
A_3     C     0.4612     0.3173     0.6261
A_2     C     0.3086     0.5695     0.0613
A_2     C     0.8435     0.3215     0.3287
A_2     C     0.2341     0.3152     0.7683
A_3     C     0.5866     0.9099     0.5912
A_1     C     0.7546     0.1454     0.3513
A_0     C     0.9798     0.8742     0.668
A_1     C     0.3893     0.9136     0.361
A_3     C     0.1241     0.4517     0.45
A_3     C     0.9865     0.2463     0.2102
A_1     C     0.977     0.421     0.9547
A_1     C     0.3482     0.1728     0.9541
A_2     C     0.6819     0.6741     0.7518
A_1     C     0.6101     0.959     0.3833
A_2     C     0.8807     0.2533     0.1722
A_1     C     0.9658     0.2357     0.2269
A_1     C     0.9184     0.4293     0.7224
A_3     C     0.9924     0.8806     0.3617
A_0     C     0.3033     0.3183     0.5263
A_0     C     0.9197     0.923     0.6986
A_1     C     0.6764     0.7607     0.7132
A_1     C     0.3699     0.6036     0.6625
A_3     C     0.0264     0.8785     0.2572
A_3     C     0.5841     0.3757     0.24
A_2     C     0.7802     0.1784     0.7718
A_3     C     0.217     0.875     0.5157
A_2     C     0.3679     0.222     0.1947
A_0     C     0.8377     0.857     0.2783
A_3     C     0.3533     0.686     0.8394
A_2     C     0.0398     0.6177     0.6474
A_0     C     0.6729     0.3959     0.9799
A_3     C     0.8392     0.1952     0.2304
A_1     C     0.3988     0.4005     0.0019
A_3     C     0.9339     0.4248     0.2246
A_2     C     0.2288     0.9259     0.2629
A_2     C     0.0861     0.1731     0.6481
A_3     C     0.2019     0.6     0.9376
A_3     C     0.3323     0.6946     0.9809
A_1     C     0.9992     0.7887     0.0812
A_2     C     0.4517     0.3698     0.1937
A_3     C     0.2681     0.1195     0.5334
A_0     C     0.7975     0.9544     0.7181
A_3     C     0.6552     0.8028     0.5417
A_1     C     0.4934     0.6615     0.3096
A_2     C     0.4015     0.2186     0.788
A_2     C     0.9175     0.4807     0.6025
A_3     C     0.9544     0.7313     0.06
A_2     C     0.8493     0.377     0.2945
A_3     C     0.4562     0.0878     0.4436
A_1     C     0.4978     0.9393     0.6827
A_3     C     0.1207     0.0652     0.3405
A_0     C     0.2161     0.4719     0.5079
A_1     C     0.8693     0.7432     0.5278
A_0     C     0.9278     0.8807     0.8299
A_1     C     0.3958     0.0665     0.5278
A_2     C     0.4258     0.1888     0.234
A_1     C     0.7021     0.8122     0.1732
A_1     C     0.4934     0.6882     0.129
A_2     C     0.9454     0.6693     0.6811
A_0     C     0.1779     0.9013     0.0969
A_2     C     0.2422     0.0288     0.3942
A_3     C     0.353     0.7601     0.9351
A_0     C     0.6215     0.8315     0.2461
A_1     C     0.0808     0.5633     0.7558
A_0     C     0.8047     0.6686     0.3743
A_0     C     0.7716     0.273     0.918
A_0     C     0.1727     0.6711     0.5202
A_2     C     0.2836     0.4695     0.6209
A_2     C     0.7814     0.2461     0.1717
A_0     C     0.5245     0.9987     0.6182
A_2     C     0.0663     0.1316     0.1987
A_2     C     0.2664     0.2235     0.4536
A_2     C     0.474     0.4902     0.9981
A_3     C     0.2831     0.4271     0.1545
A_1     C     0.7804     0.348     0.4463
A_1     C     0.1547     0.2347     0.8298
A_0     C     0.0708     0.2764     0.7326
A_0     C     0.0938     0.136     0.0077
A_0     C     0.0594     0.7729     0.0815
A_0     C     0.4613     0.3208     0.6172
A_1     C     0.6621     0.0836     0.5648
A_0     C     0.727     0.7801     0.167
A_1     C     0.0735     0.9108     0.8196
A_2     C     0.5468     0.4815     0.0276
A_0     C     0.8504     0.2163     0.7123
A_2     C     0.1461     0.5683     0.1336
A_3     C     0.4261     0.4744     0.3733
A_0     C     0.7367     0.4167     0.9034
A_0     C     0.7492     0.5845     0.8588
A_0     C     0.6922     0.3538     0.2321
A_1     C     0.0168     0.5816     0.4558
A_1     C     0.0563     0.1924     0.694
A_2     C     0.0834     0.5439     0.4734
A_0     C     0.3667     0.983     0.6806
A_0     C     0.2197     0.5548     0.625
A_0     C     0.7146     0.2913     0.195
A_0     C     0.8035     0.8808     0.5152
A_2     C     0.5046     0.0429     0.0427
A_3     C     0.2757     0.1599     0.6434
A_2     C     0.5142     0.6463     0.8912
A_1     C     0.7305     0.6424     0.4127
A_0     C     0.8045     0.8415     0.8453
A_1     C     0.7806     0.755     0.7588
A_2     C     0.9772     0.8227     0.0525
A_2     C     0.8344     0.1689     0.1709
A_3     C     0.0205     0.9019     0.8888
A_3     C     0.3316     0.7169     0.3018
A_2     C     0.0167     0.1745     0.6224
A_3     C     0.5222     0.7529     0.1128
A_2     C     0.0393     0.5898     0.4466
A_0     C     0.673     0.2818     0.3867
A_2     C     0.7081     0.8679     0.1123
A_2     C     0.2848     0.2156     0.2915
A_1     C     0.0172     0.0145     0.8085
A_0     C     0.9299     0.4686     0.9112
A_1     C     0.7298     0.2345     0.4713
A_3     C     0.8213     0.5889     0.3832
A_0     C     0.5674     0.9288     0.6557
A_0     C     0.9572     0.8666     0.5453
A_2     C     0.1429     0.632     0.5173
A_2     C     0.1574     0.835     0.313
A_3     C     0.7446     0.7863     0.8172
A_1     C     0.6798     0.4945     0.8427
A_1     C     0.618     0.1737     0.3106
A_2     C     0.4806     0.6086     0.4516
A_2     C     0.1156     0.4114     0.8675
A_1     C     0.2486     0.3906     0.4065
A_1     C     0.5378     0.2708     0.866
A_0     C     0.1206     0.2843     0.7342
A_1     C     0.4743     0.8615     0.7857
A_2     C     0.4883     0.7803     0.5735
A_2     C     0.7413     0.7511     0.1142
A_0     C     0.3979     0.1993     0.5649
A_3     C     0.3954     0.4314     0.1719
A_3     C     0.1362     0.3855     0.9797
A_3     C     0.5993     0.1475     0.704
A_2     C     0.7254     0.3647     0.0765
A_3     C     0.581     0.8214     0.0152
A_0     C     0.612     0.5022     0.1552
A_1     C     0.0439     0.1817     0.5974
A_3     C     0.874     0.8207     0.7582
A_1     C     0.7104     0.0089     0.6261
A_0     C     0.7656     0.9378     0.7386
A_1     C     0.6646     0.2212     0.1453
A_3     C     0.78     0.9768     0.9119
A_2     C     0.5379     0.5939     0.8832
A_0     C     0.656     0.7386     0.9749
A_3     C     0.1461     0.7784     0.6586
A_0     C     0.17     0.1784     0.0274
A_3     C     0.5888     0.3674     0.6398
A_1     C     0.0079     0.3082     0.265
A_0     C     0.512     0.2408     0.7658
A_1     C     0.0956     0.0864     0.4513
A_0     C     0.0461     0.644     0.3773
A_2     C     0.1566     0.3672     0.5813
A_2     C     0.8606     0.933     0.9799
A_0     C     0.9475     0.9209     0.6211
A_3     C     0.9595     0.4741     0.8905
A_1     C     0.8545     0.2314     0.5357
A_2     C     0.8544     0.896     0.053
A_2     C     0.4082     0.1705     0.3557
A_3     C     0.4777     0.0738     0.2334
A_1     C     0.2598     0.9335     0.6396
A_0     C     0.3766     0.0169     0.2448
A_1     C     0.8657     0.7464     0.8888
A_1     C     0.2247     0.1106     0.6326
A_0     C     0.5441     0.6895     0.9928
A_1     C     0.7831     0.2949     0.7041
A_2     C     0.7787     0.5734     0.552
A_0     C     0.1585     0.8834     0.2053
A_3     C     0.4385     0.6534     0.7586
A_2     C     0.4111     0.1242     0.6188
A_3     C     0.8634     0.6647     0.6017
A_2     C     0.5503     0.3328     0.3461
A_1     C     0.8915     0.6581     0.9231
A_3     C     0.6001     0.5581     0.1579
A_1     C     0.5038     0.9277     0.0138
A_1     C     0.6392     0.7914     0.9379
A_1     C     0.9677     0.6323     0.804
A_1     C     0.1785     0.6429     0.4812
A_3     C     0.5213     0.1423     0.8858
A_0     C     0.9351     0.3578     0.1493
A_1     C     0.1966     0.3823     0.2967
A_3     C     0.0408     0.6034     0.363
A_3     C     0.6536     0.7092     0.8845
A_3     C     0.0184     0.2994     0.0662
A_1     C     0.1851     0.734     0.6309
A_2     C     0.4853     0.5103     0.7392
A_2     C     0.2886     0.3892     0.7279
A_1     C     0.8496     0.8371     0.0608
A_1     C     0.3583     0.4488     0.4757
A_3     C     0.2906     0.5808     0.2289
A_3     C     0.9149     0.392     0.4934
A_2     C     0.363     0.6632     0.5256
A_3     C     0.8478     0.2649     0.7794
A_1     C     0.1016     0.56     0.5803
A_2     C     0.802     0.6974     0.7232
A_0     C     0.0998     0.489     0.0039
A_1     C     0.6432     0.1582     0.2606
A_2     C     0.6464     0.7818     0.8251
A_2     C     0.1364     0.5052     0.7937
A_2     C     0.0856     0.6947     0.4974
A_0     C     0.5354     0.4632     0.6179
A_0     C     0.8622     0.4292     0.2256
A_3     C     0.8375     0.0322     0.2925
A_2     C     0.996     0.6935     0.5417
A_1     C     0.1979     0.3019     0.877
A_0     C     0.244     0.3708     0.7579
A_3     C     0.5462     0.252     0.0716
A_1     C     0.7949     0.6909     0.7045
A_2     C     0.6638     0.9995     0.8451
A_3     C     0.5122     0.5056     0.303
A_2     C     0.7016     0.5328     0.3741
A_2     C     0.0721     0.6679     0.9655
A_3     C     0.6045     0.1204     0.0725
A_3     C     0.0458     0.6061     0.5811
A_0     C     0.1728     0.7667     0.8715
A_2     C     0.0713     0.5998     0.6356
A_3     C     0.3937     0.7538     0.9689
A_0     C     0.2761     0.4126     0.3773
A_1     C     0.0956     0.6596     0.1199
A_2     C     0.7163     0.5112     0.1151
A_2     C     0.4537     0.3247     0.862
A_1     C     0.2994     0.64     0.9969
A_0     C     0.5714     0.3512     0.4553
A_2     C     0.6504     0.8858     0.1906
A_1     C     0.0058     0.7046     0.462
A_0     C     0.7323     0.7876     0.6579
A_2     C     0.9671     0.5898     0.1488
A_1     C     0.2818     0.1476     0.7178
A_1     C     0.5069     0.9772     0.1162
A_3     C     0.8812     0.2587     0.0937
A_0     C     0.3949     0.4523     0.3162
A_1     C     0.1326     0.6957     0.4423
A_1     C     0.9588     0.8303     0.0739
A_2     C     0.5568     0.1554     0.5629
A_3     C     0.3972     0.5533     0.3489
A_2     C     0.2881     0.7174     0.8638
A_3     C     0.0116     0.1624     0.6945
A_3     C     0.4626     0.691     0.1322
A_1     C     0.4433     0.5051     0.5783
A_0     C     0.1297     0.5456     0.3553
A_0     C     0.8092     0.6128     0.065
A_1     C     0.0417     0.0537     0.3189
A_0     C     0.5827     0.9324     0.2803
A_2     C     0.219     0.8158     0.0755
A_1     C     0.7348     0.0775     0.2843
A_2     C     0.6287     0.5369     0.9929
A_1     C     0.6695     0.7783     0.9614
A_1     C     0.5714     0.3644     0.7574
A_0     C     0.3738     0.8717     0.6636
A_3     C     0.0077     0.8276     0.6369
A_2     C     0.0858     0.0083     0.0572
A_1     C     0.8936     0.5843     0.2358
A_3     C     0.1658     0.7589     0.7225
A_1     C     0.9504     0.1432     0.8007
A_1     C     0.2377     0.1439     0.9321
A_3     C     0.1006     0.0924     0.8432
A_0     C     0.6906     0.8937     0.7266
A_3     C     0.8274     0.4289     0.6148
A_2     C     0.6942     0.1044     0.0874
A_2     C     0.8355     0.1987     0.9566
A_3     C     0.1313     0.2821     0.9544
A_0     C     0.1062     0.5223     0.1869
A_0     C     0.8476     0.3294     0.8298
A_2     C     0.8378     0.2339     0.5834
A_1     C     0.0489     0.9006     0.222
A_2     C     0.9256     0.7318     0.0052
A_0     C     0.8368     0.7273     0.7641
A_2     C     0.3655     0.3599     0.6764
A_3     C     0.9837     0.3305     0.8392
A_0     C     0.052     0.4389     0.8457
A_3     C     0.046     0.8682     0.7244
A_3     C     0.9595     0.0861     0.0116
A_2     C     0.9146     0.5043     0.2995
A_2     C     0.494     0.9476     0.4804
A_1     C     0.1266     0.4805     0.0196
A_2     C     0.6229     0.3865     0.7094
A_2     C     0.5783     0.7028     0.2473
A_0     C     0.6537     0.6037     0.9501
A_3     C     0.2112     0.117     0.0895
A_2     C     0.4763     0.5565     0.9115
A_0     C     0.9757     0.6482     0.0175
A_0     C     0.1815     0.5989     0.7551
A_3     C     0.5305     0.1589     0.211
A_0     C     0.2928     0.9603     0.6763
A_2     C     0.9979     0.966     0.7157
A_2     C     0.1283     0.5251     0.273
A_1     C     0.8832     0.0311     0.0414
A_2     C     0.7275     0.5154     0.978
A_1     C     0.1021     0.4661     0.3932
A_0     C     0.8434     0.3995     0.8942
A_3     C     0.8222     0.9607     0.2574
A_3     C     0.062     0.8409     0.5175
A_3     C     0.2613     0.8953     0.0756
A_1     C     0.7355     0.8947     0.4564
A_2     C     0.8308     0.6621     0.7478
A_0     C     0.3638     0.3373     0.0476
A_3     C     0.2878     0.3724     0.8764
A_1     C     0.9081     0.5716     0.3248
A_1     C     0.6744     0.1827     0.0157
A_1     C     0.9447     0.6444     0.1186
A_3     C     0.388     0.6242     0.233
A_2     C     0.3212     0.9799     0.7688
A_0     C     0.9975     0.709     0.4323
A_0     C     0.5748     0.2618     0.5905
A_0     C     0.7216     0.1867     0.6672
A_1     C     0.8543     0.2579     0.2333
A_3     C     0.5534     0.4664     0.9539
A_3     C     0.7029     0.7742     0.5824
A_1     C     0.6787     0.6484     0.553
A_1     C     0.8055     0.3398     0.9319
A_2     C     0.4557     0.6023     0.6891
A_0     C     0.4953     0.0709     0.0102
A_3     C     0.0523     0.6     0.1945
A_3     C     0.3489     0.362     0.2389
A_3     C     0.3719     0.5537     0.6833
A_2     C     0.4703     0.7109     0.6384
A_2     C     0.6247     0.2203     0.9675
A_2     C     0.03     0.1531     0.4221
A_0     C     0.0087     0.1378     0.3492
A_3     C     0.8168     0.4022     0.2413
A_2     C     0.1123     0.2642     0.0778
A_1     C     0.3827     0.538     0.5195
A_0     C     0.4661     0.1589     0.3844
A_2     C     0.4001     0.3276     0.4815
A_0     C     0.687     0.7882     0.5481
A_1     C     0.5444     0.4494     0.18
A_3     C     0.7653     0.1937     0.7435
A_1     C     0.4933     0.8709     0.9758
A_0     C     0.9622     0.6494     0.757
A_0     C     0.4805     0.7126     0.5485
A_2     C     0.169     0.4787     0.1862
A_3     C     0.0887     0.0198     0.2888
A_0     C     0.9418     0.5404     0.3154
A_2     C     0.9987     0.0242     0.9333
A_1     C     0.9513     0.7781     0.7171
A_1     C     0.6396     0.6548     0.0186
A_0     C     0.8156     0.4365     0.2422
A_3     C     0.8969     0.9386     0.4278
A_2     C     0.4619     0.2411     0.6265
A_0     C     0.8306     0.244     0.9783
A_3     C     0.3315     0.6279     0.5723
A_1     C     0.5193     0.0457     0.7377
A_2     C     0.7579     0.6124     0.4152
A_3     C     0.0455     0.7     0.0923
A_2     C     0.4524     0.2434     0.0413
A_3     C     0.5684     0.9391     0.1012
A_2     C     0.8572     0.985     0.1268
A_0     C     0.6999     0.3147     0.2548
A_1     C     0.3874     0.4221     0.2981
A_2     C     0.8242     0.9308     0.9679
A_0     C     0.2327     0.9978     0.9115
A_0     C     0.7531     0.2107     0.5406
A_2     C     0.5969     0.5169     0.6456
A_0     C     0.8979     0.4655     0.2368
A_1     C     0.0126     0.0556     0.4151
A_1     C     0.8099     0.8237     0.5358
A_0     C     0.0701     0.3014     0.3032
A_3     C     0.5218     0.6496     0.8657
A_2     C     0.6929     0.2287     0.6112
A_0     C     0.1892     0.5715     0.5732
A_2     C     0.5045     0.2366     0.4992
A_3     C     0.043     0.2443     0.6826
A_2     C     0.441     0.6179     0.9185
A_0     C     0.2023     0.2056     0.7743
A_3     C     0.5601     0.5255     0.535
A_0     C     0.9868     0.4256     0.2677
A_2     C     0.8008     0.1079     0.8131
A_1     C     0.7202     0.2363     0.1978
A_1     C     0.2677     0.3451     0.6404
A_3     C     0.349     0.2053     0.5236
A_0     C     0.6419     0.3955     0.2833
A_2     C     0.5568     0.2557     0.4495
A_3     C     0.6894     0.2607     0.0914
A_0     C     0.7483     0.5126     0.637
A_0     C     0.7782     0.2623     0.2493
A_2     C     0.8917     0.1163     0.315
A_2     C     0.0705     0.8102     0.9463
A_2     C     0.2618     0.7694     0.876
A_1     C     0.1059     0.6445     0.0026
A_3     C     0.4507     0.5725     0.1438
A_0     C     0.966     0.8887     0.8855
A_0     C     0.2898     0.4859     0.8556
A_0     C     0.7504     0.5313     0.0143
A_1     C     0.1062     0.6349     0.0528
A_3     C     0.0706     0.5989     0.8122
A_3     C     0.103     0.8703     0.5226
A_3     C     0.1532     0.7044     0.4886
A_2     C     0.9488     0.8646     0.6621
A_2     C     0.3759     0.5502     0.2487
A_0     C     0.6937     0.6961     0.0938
A_0     C     0.6232     0.9295     0.6812
A_2     C     0.0146     0.4576     0.4685
A_3     C     0.7353     0.6332     0.0144
A_2     C     0.0217     0.892     0.7896
A_3     C     0.6927     0.4975     0.6366
A_1     C     0.8845     0.7503     0.5956
A_0     C     0.0112     0.1155     0.4446
A_0     C     0.0613     0.841     0.0453
A_1     C     0.1635     0.4097     0.8303
A_1     C     0.2342     0.8576     0.2955
A_1     C     0.3687     0.7207     0.2014
A_1     C     0.3415     0.7986     0.7061
A_2     C     0.2371     0.4156     0.3294
A_0     C     0.1967     0.5874     0.2771
A_0     C     0.5829     0.409     0.7052
A_1     C     0.6737     0.2572     0.4715
A_0     C     0.2738     0.8459     0.0987
A_0     C     0.3903     0.5059     0.9928
A_2     C     0.6675     0.9579     0.844
A_1     C     0.2678     0.5443     0.7007
A_2     C     0.0009     0.919     0.933
A_0     C     0.6385     0.2269     0.7947
A_3     C     0.3792     0.6759     0.0197
A_0     C     0.2662     0.4987     0.9528
A_3     C     0.5084     0.3288     0.4668
A_3     C     0.0083     0.7842     0.0241
A_0     C     0.662     0.597     0.8797
A_1     C     0.4071     0.1206     0.5612
A_0     C     0.6216     0.8078     0.8383
A_2     C     0.5516     0.1203     0.1826
A_3     C     0.896     0.6737     0.6107
A_1     C     0.7875     0.5554     0.9154
A_0     C     0.9609     0.8689     0.9853
A_0     C     0.2566     0.2949     0.4812
A_1     C     0.8104     0.7303     0.2505
A_2     C     0.8404     0.0597     0.9819
A_0     C     0.1015     0.8716     0.4133
A_0     C     0.6516     0.4762     0.7307
A_0     C     0.6242     0.8332     0.4752
A_1     C     0.5893     0.3068     0.5648
A_3     C     0.8951     0.6417     0.7189
A_1     C     0.9198     0.029     0.5514
A_2     C     0.1368     0.8635     0.783
A_2     C     0.4956     0.8091     0.7214
A_2     C     0.4241     0.2518     0.7638
A_1     C     0.5474     0.3666     0.253
A_0     C     0.2512     0.8703     0.213
A_0     C     0.4172     0.3647     0.4695
A_0     C     0.4797     0.0573     0.3091
A_1     C     0.6211     0.2512     0.8233
A_0     C     0.9568     0.2603     0.6085
A_3     C     0.9991     0.2914     0.1268
A_1     C     0.6874     0.2927     0.657
A_3     C     0.6465     0.4674     0.1289
A_3     C     0.6047     0.5313     0.6633
A_0     C     0.5884     0.8163     0.3451
A_2     C     0.1093     0.6023     0.9045
A_3     C     0.143     0.7253     0.7883
A_1     C     0.5438     0.2701     0.4412
A_0     C     0.5297     0.2345     0.9141
A_2     C     0.3879     0.9246     0.1547
A_1     C     0.6701     0.2154     0.5357
A_2     C     0.3078     0.678     0.387
A_1     C     0.8895     0.6081     0.2519
A_1     C     0.1041     0.8467     0.2441
A_2     C     0.9081     0.5799     0.1519
A_0     C     0.0822     0.8281     0.8918
A_1     C     0.5111     0.9271     0.5349
A_0     C     0.4923     0.8262     0.6733
A_2     C     0.9616     0.068     0.2849
A_2     C     0.8409     0.317     0.2204
A_3     C     0.1728     0.09     0.4208
A_2     C     0.4911     0.5944     0.1713
A_2     C     0.3518     0.2245     0.7302
A_0     C     0.354     0.9464     0.7649
A_3     C     0.4531     0.1981     0.4212
A_1     C     0.8341     0.7936     0.3692
A_3     C     0.9057     0.4346     0.1793
A_2     C     0.0543     0.4873     0.3146
A_1     C     0.3516     0.9631     0.8092
A_0     C     0.6669     0.0633     0.1217
A_0     C     0.9679     0.2259     0.8024
A_2     C     0.2057     0.5661     0.5943
A_2     C     0.2457     0.3081     0.1761
A_0     C     0.5871     0.2735     0.7634
A_1     C     0.0833     0.6825     0.6979
A_2     C     0.3055     0.9169     0.5046
A_0     C     0.145     0.5522     0.9316
A_2     C     0.6478     0.7608     0.8587
A_3     C     0.7301     0.7623     0.3123
A_1     C     0.4852     0.566     0.6744
A_3     C     0.5657     0.4142     0.3922
A_1     C     0.3223     0.7532     0.8805
A_3     C     0.4622     0.7574     0.8906
A_2     C     0.1243     0.7392     0.5392
A_3     C     0.9192     0.797     0.8194
A_0     C     0.0592     0.7845     0.5398
A_2     C     0.8864     0.3622     0.8511
A_0     C     0.877     0.7928     0.7146
A_1     C     0.8314     0.5836     0.5158
A_3     C     0.5296     0.9425     0.3523
A_0     C     0.3833     0.4875     0.4709
A_3     C     0.235     0.3032     0.8469
A_3     C     0.6845     0.6774     0.1397
A_3     C     0.6749     0.2041     0.014
A_1     C     0.0803     0.333     0.0604
A_3     C     0.6656     0.0534     0.6621
A_0     C     0.2884     0.8507     0.7242
A_2     C     0.6157     0.6235     0.0158
A_3     C     0.2799     0.7806     0.1015
A_3     C     0.3128     0.6881     0.5769
A_0     C     0.777     0.3669     0.7449
A_3     C     0.4289     0.101     0.0232
A_1     C     0.6769     0.7493     0.2733
A_2     C     0.9067     0.0909     0.5656
A_0     C     0.6928     0.3264     0.8871
A_2     C     0.0858     0.5649     0.3963
A_0     C     0.449     0.5019     0.9899
A_1     C     0.6187     0.6321     0.3955
A_0     C     0.3105     0.1686     0.0594
A_1     C     0.911     0.3915     0.0587
A_1     C     0.0919     0.6519     0.7403
A_2     C     0.2527     0.8344     0.0518
A_0     C     0.9439     0.288     0.6526
A_1     C     0.9635     0.1887     0.4484
A_2     C     0.9803     0.6265     0.8128
A_0     C     0.2104     0.612     0.5485
A_2     C     0.3745     0.1742     0.7276
A_0     C     0.7654     0.5587     0.9011
A_3     C     0.6315     0.2832     0.6303
A_0     C     0.332     0.3748     0.552
A_2     C     0.3167     0.6716     0.7312
A_1     C     0.5306     0.4082     0.0246
A_1     C     0.3021     0.0788     0.6411
A_2     C     0.4119     0.6596     0.0368
A_1     C     0.7928     0.1383     0.4176
A_0     C     0.3579     0.3201     0.4656
A_2     C     0.637     0.6301     0.4796
A_3     C     0.6128     0.4012     0.9543
A_1     C     0.0795     0.6168     0.6998
A_1     C     0.1758     0.656     0.6003
A_2     C     0.012     0.5835     0.4462
A_1     C     0.6739     0.428     0.6231
A_2     C     0.109     0.5017     0.1716
A_3     C     0.3561     0.9186     0.3938
A_3     C     0.243     0.0096     0.2059
A_3     C     0.6861     0.7883     0.7341
A_3     C     0.294     0.6979     0.0324
A_2     C     0.9827     0.6384     0.3489
A_2     C     0.0913     0.6756     0.749
A_0     C     0.543     0.9889     0.6804
A_1     C     0.9102     0.0367     0.3943
A_0     C     0.7204     0.46     0.1877
A_3     C     0.0674     0.3032     0.9422
A_3     C     0.8711     0.0747     0.3194
A_3     C     0.8397     0.8888     0.8133
A_1     C     0.5845     0.1571     0.6466
A_2     C     0.1503     0.0021     0.0497
A_2     C     0.8387     0.5073     0.5617
A_3     C     0.9485     0.1823     0.0035
A_2     C     0.5254     0.7282     0.6607
A_1     C     0.0927     0.1369     0.4299
A_0     C     0.657     0.4302     0.7457
A_2     C     0.0312     0.1634     0.1474
A_2     C     0.7321     0.5669     0.4939
A_0     C     0.7845     0.8041     0.0514
A_2     C     0.6268     0.9437     0.3696
A_0     C     0.0561     0.2659     0.0185
A_2     C     0.7081     0.4032     0.4884
A_1     C     0.4709     0.2452     0.6251
A_3     C     0.0661     0.7934     0.8453
A_0     C     0.0497     0.6125     0.5658
A_2     C     0.8225     0.1502     0.3666
A_0     C     0.01     0.3573     0.007
A_0     C     0.961     0.1788     0.4204
A_1     C     0.9598     0.1301     0.7475
A_0     C     0.6856     0.0767     0.5273
A_1     C     0.6912     0.5877     0.6889
A_3     C     0.5642     0.8548     0.3529
A_3     C     0.7173     0.1047     0.6645
A_3     C     0.8958     0.2898     0.6471
A_2     C     0.6006     0.6373     0.7089
A_3     C     0.3107     0.6993     0.1574
A_2     C     0.3496     0.7959     0.7003
A_1     C     0.3534     0.7779     0.4781
A_2     C     0.8273     0.4963     0.704
A_1     C     0.346     0.9659     0.4701
A_3     C     0.1151     0.8145     0.5547
A_1     C     0.6641     0.8164     0.017
A_3     C     0.2376     0.7726     0.0014
A_1     C     0.5689     0.59     0.5371
A_1     C     0.8856     0.5652     0.9826
A_2     C     0.9501     0.7224     0.8084
A_3     C     0.2708     0.0784     0.3938
A_3     C     0.8212     0.5633     0.5065
A_1     C     0.9026     0.6686     0.4489
A_1     C     0.8355     0.3934     0.9064
A_2     C     0.2805     0.9631     0.6779
A_2     C     0.6694     0.3267     0.6539
A_2     C     0.3463     0.3241     0.6009
A_0     C     0.158     0.1975     0.2603
A_2     C     0.1192     0.5534     0.5781
A_3     C     0.6246     0.9362     0.9213
A_3     C     0.3961     0.0606     0.4919
A_3     C     0.437     0.6425     0.921
A_1     C     0.6737     0.4358     0.6137
A_1     C     0.3233     0.6776     0.0659
A_2     C     0.1864     0.6087     0.1297
A_2     C     0.4124     0.949     0.7736
A_0     C     0.1424     0.5616     0.1215
A_1     C     0.0471     0.0479     0.3588
A_0     C     0.1306     0.3179     0.3646
A_2     C     0.8095     0.7929     0.0904
A_2     C     0.252     0.1632     0.4507
A_1     C     0.8276     0.2329     0.3571
A_3     C     0.8362     0.0557     0.2533
A_1     C     0.2584     0.3343     0.5452
A_1     C     0.0028     0.0391     0.7529
A_3     C     0.251     0.1393     0.0681
A_0     C     0.189     0.0708     0.3723
A_1     C     0.408     0.5681     0.1982
A_0     C     0.1573     0.229     0.4846
A_0     C     0.3971     0.9026     0.9881
A_0     C     0.3328     0.6855     0.915
A_3     C     0.5281     0.4887     0.7655
A_2     C     0.365     0.8688     0.4888
A_3     C     0.3152     0.2325     0.0572
A_3     C     0.0562     0.0104     0.675
A_3     C     0.0377     0.0926     0.262
A_0     C     0.9246     0.4132     0.1407
A_0     C     0.9819     0.7971     0.2975
A_3     C     0.451     0.0709     0.4329
A_3     C     0.6074     0.7862     0.447
A_1     C     0.4881     0.9334     0.4812
A_0     C     0.7408     0.3538     0.7228
A_0     C     0.0469     0.4789     0.0852
A_3     C     0.8759     0.9042     0.1153
A_3     C     0.003     0.9538     0.3701
A_0     C     0.7046     0.4865     0.1843
A_0     C     0.467     0.1043     0.1058
A_0     C     0.581     0.8458     0.0483
A_0     C     0.3848     0.1185     0.6492
A_1     C     0.4566     0.8833     0.222
A_0     C     0.3561     0.7372     0.1299
A_0     C     0.8609     0.2149     0.9149
A_2     C     0.1156     0.5363     0.0099
A_2     C     0.9581     0.9853     0.7406
A_0     C     0.1523     0.8757     0.8663
A_0     C     0.1874     0.6632     0.9221
A_0     C     0.868     0.2551     0.6419
A_1     C     0.6184     0.7897     0.7934
A_3     C     0.3277     0.9874     0.7278
A_0     C     0.4761     0.0957     0.7049
A_0     C     0.5795     0.105     0.7492
A_1     C     0.6171     0.5349     0.5247
A_0     C     0.6957     0.8654     0.3007
A_2     C     0.5157     0.8089     0.3348
A_0     C     0.7498     0.4724     0.9267
A_3     C     0.1457     0.6164     0.7187
A_0     C     0.4167     0.0869     0.5945
A_3     C     0.0142     0.9716     0.6312
A_0     C     0.663     0.8442     0.6422
A_0     C     0.7598     0.6981     0.3671
A_3     C     0.446     0.7913     0.5354
A_1     C     0.5424     0.2859     0.136
A_0     C     0.3722     0.0698     0.3061
A_3     C     0.1558     0.4161     0.1753
A_1     C     0.7533     0.4325     0.7274
A_1     C     0.3983     0.5009     0.1097
A_1     C     0.7511     0.4303     0.3872
A_0     C     0.6345     0.3797     0.872
A_2     C     0.2568     0.6128     0.6629
A_2     C     0.0003     0.7571     0.0101
A_1     C     0.5947     0.2595     0.7938
A_3     C     0.8352     0.0106     0.7088
A_1     C     0.466     0.623     0.0405
A_3     C     0.6024     0.044     0.1859
A_3     C     0.3463     0.7995     0.3096
A_2     C     0.4138     0.0958     0.4358
A_0     C     0.3944     0.4885     0.9467
A_1     C     0.0061     0.6728     0.587
A_1     C     0.2796     0.6517     0.8729
A_2     C     0.1242     0.6416     0.0882
A_3     C     0.0968     0.5974     0.9517
A_0     C     0.9109     0.9148     0.9439
A_2     C     0.178     0.5858     0.4689
A_1     C     0.9271     0.2658     0.299
A_3     C     0.6708     0.0026     0.8763
A_3     C     0.1873     0.9793     0.6124
A_1     C     0.8751     0.0764     0.7231
A_3     C     0.7408     0.2311     0.9964
A_3     C     0.8784     0.6601     0.9493
A_3     C     0.2477     0.5498     0.5149
A_3     C     0.8451     0.2319     0.9622
A_0     C     0.1217     0.9704     0.7852
A_1     C     0.4615     0.3281     0.4777
A_3     C     0.3133     0.5563     0.1432
A_2     C     0.2142     0.4825     0.0199
A_1     C     0.15     0.7021     0.7493
A_3     C     0.6819     0.1134     0.5288
A_2     C     0.3433     0.0831     0.5781
A_0     C     0.1361     0.0093     0.3471
A_3     C     0.903     0.1226     0.3613
A_0     C     0.7154     0.3625     0.3128
A_3     C     0.6507     0.8144     0.9268
A_2     C     0.2515     0.6924     0.015
A_3     C     0.8578     0.7932     0.4713
A_3     C     0.94     0.4345     0.1824
A_2     C     0.9877     0.0987     0.7811
A_2     C     0.3484     0.7646     0.0857
A_2     C     0.1909     0.813     0.0565
A_3     C     0.518     0.4264     0.0783
A_1     C     0.943     0.8264     0.9634
A_2     C     0.7347     0.7356     0.3336
A_1     C     0.2373     0.0379     0.9194
A_3     C     0.815     0.2359     0.4845
A_3     C     0.7015     0.9528     0.5108
A_0     C     0.5284     0.9811     0.213
A_1     C     0.9844     0.6624     0.2568
A_1     C     0.9935     0.391     0.1393
A_0     C     0.4615     0.2003     0.6946
A_2     C     0.8002     0.4575     0.6941
A_0     C     0.7744     0.9402     0.1279
A_1     C     0.8979     0.3995     0.2915
A_0     C     0.8049     0.8869     0.1396
A_1     C     0.9233     0.4039     0.7189
A_3     C     0.521     0.4419     0.8672
A_0     C     0.5316     0.8254     0.3623
A_3     C     0.4596     0.3236     0.6293
A_0     C     0.1844     0.967     0.1299
A_3     C     0.2414     0.4893     0.5477
A_1     C     0.4333     0.8422     0.1932
A_0     C     0.6532     0.1368     0.049
A_3     C     0.026     0.2129     0.9229
A_3     C     0.7389     0.4394     0.0683
A_0     C     0.774     0.7076     0.6098
A_1     C     0.8399     0.1906     0.832
A_0     C     0.0525     0.3418     0.0676
A_1     C     0.541     0.2637     0.2789
A_1     C     0.6096     0.7255     0.445
A_3     C     0.5102     0.6763     0.8802
A_1     C     0.2646     0.2626     0.8727
A_1     C     0.0208     0.6193     0.1273
A_0     C     0.2002     0.17     0.5879
A_0     C     0.1775     0.9094     0.8014
A_1     C     0.8342     0.3711     0.88
A_1     C     0.716     0.7975     0.4162
A_2     C     0.0271     0.9617     0.9994
A_3     C     0.1258     0.1385     0.7279
A_1     C     0.0044     0.2518     0.3358
A_2     C     0.7367     0.6603     0.8781
A_2     C     0.9784     0.2831     0.1064
A_0     C     0.535     0.1139     0.8494
A_0     C     0.7452     0.128     0.7938
A_0     C     0.1851     0.8278     0.7532
A_2     C     0.5784     0.3147     0.7972
A_0     C     0.6769     0.2967     0.6337
A_3     C     0.146     0.5136     0.1327
A_0     C     0.3281     0.8195     0.9401
A_1     C     0.027     0.8938     0.6881
A_0     C     0.6532     0.1283     0.6559
A_2     C     0.1317     0.3003     0.8686
A_0     C     0.6761     0.6055     0.3724
A_2     C     0.6277     0.0078     0.2943
A_0     C     0.6236     0.0073     0.1531
A_0     C     0.3578     0.2603     0.5692
A_2     C     0.4506     0.4581     0.2557
A_3     C     0.8338     0.9794     0.925
A_0     C     0.1908     0.6762     0.2192
A_2     C     0.6051     0.2889     0.6333
A_3     C     0.7332     0.7401     0.1796
A_2     C     0.6349     0.1674     0.753
A_0     C     0.8232     0.5607     0.7522
A_1     C     0.8348     0.7127     0.8437
A_2     C     0.082     0.2643     0.0383
A_2     C     0.0824     0.451     0.3736
A_3     C     0.3545     0.3539     0.1529
A_2     C     0.9061     0.3301     0.2671
A_0     C     0.0741     0.971     0.793
A_3     C     0.3822     0.6497     0.767
A_1     C     0.6891     0.6235     0.8014
A_0     C     0.6571     0.8068     0.8157
A_2     C     0.6409     0.0986     0.4328
A_1     C     0.6651     0.0184     0.7103
A_0     C     0.9319     0.3557     0.3848
A_0     C     0.4307     0.5347     0.2701
A_3     C     0.5469     0.226     0.9325
A_1     C     0.699     0.6893     0.8581
A_2     C     0.0741     0.2828     0.7915
A_3     C     0.2587     0.1749     0.206
A_3     C     0.3576     0.5607     0.931
A_3     C     0.6952     0.874     0.9594
A_3     C     0.8611     0.0313     0.8564
A_2     C     0.7987     0.1802     0.3227
A_1     C     0.5937     0.5316     0.3298
A_0     C     0.1878     0.7032     0.4762
A_3     C     0.5989     0.8299     0.6837
A_3     C     0.057     0.0676     0.9939
A_2     C     0.243     0.1831     0.072
A_1     C     0.2963     0.5711     0.5119
A_1     C     0.4097     0.1212     0.2373
A_0     C     0.9475     0.345     0.0153
A_1     C     0.1774     0.3118     0.3546
A_2     C     0.2438     0.5837     0.4706
A_3     C     0.9139     0.599     0.38
A_3     C     0.1273     0.6177     0.5149
A_3     C     0.1069     0.3478     0.0107
A_1     C     0.1222     0.8349     0.0309
A_0     C     0.8113     0.3188     0.1864
A_3     C     0.1931     0.5902     0.7189
A_1     C     0.6746     0.0581     0.6218
A_0     C     0.1223     0.6013     0.5189
A_0     C     0.4526     0.2903     0.8654
A_1     C     0.317     0.4674     0.5301
A_1     C     0.2512     0.3557     0.9702
A_3     C     0.2246     0.4865     0.6392
A_2     C     0.6906     0.4771     0.8995
A_2     C     0.2864     0.7246     0.5142
A_1     C     0.1721     0.8527     0.2415
A_2     C     0.453     0.1922     0.1272
A_1     C     0.4123     0.1599     0.4086
A_1     C     0.7881     0.9107     0.742
A_2     C     0.7534     0.6941     0.4725
A_3     C     0.6992     0.7594     0.6355
A_2     C     0.5902     0.059     0.8514
A_1     C     0.8877     0.4166     0.4242
A_3     C     0.2067     0.4223     0.2202
A_0     C     0.9557     0.2086     0.4628
A_1     C     0.3479     0.1464     0.1345
A_2     C     0.1406     0.1584     0.7755
A_1     C     0.2486     0.7745     0.5019
A_2     C     0.2411     0.8437     0.0296
A_1     C     0.9152     0.6322     0.9392
A_3     C     0.6307     0.0468     0.855
A_0     C     0.2763     0.7698     0.2225
A_3     C     0.3179     0.8959     0.7552
A_3     C     0.5854     0.7244     0.7488
A_3     C     0.2722     0.2408     0.4167
A_3     C     0.6259     0.7903     0.7034
A_3     C     0.8576     0.2847     0.7156
A_1     C     0.8321     0.5875     0.6716
A_2     C     0.1666     0.9174     0.1214
A_2     C     0.9862     0.3495     0.6115
A_1     C     0.1652     0.6647     0.3775
A_2     C     0.4431     0.6379     0.8586
A_2     C     0.0725     0.2822     0.3605
A_2     C     0.5175     0.7429     0.1671
A_0     C     0.2245     0.5293     0.077
A_3     C     0.5261     0.9318     0.3165
A_3     C     0.7177     0.1073     0.7504
A_0     C     0.4022     0.1841     0.4136
A_2     C     0.8824     0.5847     0.8202
A_1     C     0.2815     0.3122     0.4204
A_2     C     0.7384     0.2107     0.1581
A_3     C     0.1687     0.6055     0.4059
A_2     C     0.7861     0.2398     0.4485
A_1     C     0.4414     0.7899     0.3981
A_0     C     0.3875     0.4735     0.0392
A_2     C     0.3548     0.9681     0.144
A_2     C     0.9286     0.7511     0.0181
A_2     C     0.7118     0.9298     0.9737
A_2     C     0.9155     0.7278     0.1883
A_3     C     0.1465     0.9813     0.743
A_0     C     0.2378     0.0053     0.5736
A_2     C     0.0353     0.0414     0.3991
A_0     C     0.3272     0.2803     0.2658
A_2     C     0.7321     0.1735     0.574
A_0     C     0.5443     0.9064     0.161
A_3     C     0.0336     0.3909     0.0228
A_0     C     0.0121     0.5924     0.5169
A_0     C     0.2281     0.6516     0.3123
A_2     C     0.3105     0.3865     0.6073
A_2     C     0.4268     0.2889     0.9546
A_2     C     0.8565     0.6005     0.3482
A_0     C     0.7961     0.2305     0.5594
A_0     C     0.8258     0.6317     0.7681
A_2     C     0.8458     0.5605     0.9882
A_2     C     0.0633     0.2123     0.5026
A_3     C     0.3774     0.6763     0.4904
A_2     C     0.2534     0.167     0.7515
A_2     C     0.2107     0.1062     0.1022
A_1     C     0.4084     0.6836     0.0537
A_2     C     0.7419     0.0609     0.0757
A_3     C     0.2476     0.4974     0.574
A_1     C     0.542     0.6574     0.0055
A_0     C     0.5169     0.2147     0.8934
A_1     C     0.9188     0.084     0.3547
A_3     C     0.6359     0.8204     0.6226
A_1     C     0.4757     0.2873     0.5266
A_2     C     0.8338     0.0886     0.3459
A_3     C     0.9379     0.7918     0.4897
A_2     C     0.202     0.0023     0.3983
A_1     C     0.1993     0.8891     0.5782
A_1     C     0.2442     0.3678     0.305
A_1     C     0.1627     0.4881     0.6225
A_2     C     0.2156     0.2928     0.4585
A_2     C     0.6728     0.187     0.3848
A_1     C     0.4694     0.0038     0.7852
A_1     C     0.1165     0.4289     0.0669
A_2     C     0.8891     0.244     0.9145
A_0     C     0.9415     0.2498     0.8823
A_3     C     0.3085     0.6061     0.3582
A_0     C     0.4686     0.2228     0.2025
A_3     C     0.6553     0.8408     0.3154
A_2     C     0.8688     0.6633     0.8725
A_0     C     0.7201     0.5913     0.1761
A_3     C     0.1587     0.0083     0.6174
A_1     C     0.6453     0.7898     0.2074
A_2     C     0.4384     0.97     0.2341
A_0     C     0.6388     0.6814     0.8465
A_1     C     0.0413     0.4659     0.5481
A_0     C     0.2828     0.3147     0.5686
A_1     C     0.5961     0.1976     0.1031
A_1     C     0.9006     0.3746     0.8944
A_0     C     0.5201     0.4944     0.7735
A_2     C     0.9149     0.5503     0.2439
A_2     C     0.0138     0.2524     0.8793
A_0     C     0.313     0.5172     0.8738
A_3     C     0.1496     0.9432     0.3532
A_3     C     0.1315     0.289     0.6243
A_1     C     0.029     0.9847     0.4891
A_3     C     0.5573     0.7606     0.7851
A_1     C     0.3003     0.8485     0.4439
A_0     C     0.1872     0.4338     0.0792
A_3     C     0.6863     0.1319     0.0068
A_3     C     0.9366     0.7816     0.7397
A_3     C     0.0972     0.0745     0.6013
A_1     C     0.1396     0.5148     0.187
A_1     C     0.4778     0.2283     0.2011
A_1     C     0.2364     0.4569     0.2355
A_1     C     0.3811     0.8162     0.1977
A_3     C     0.2836     0.608     0.5365
A_2     C     0.8497     0.5578     0.878
A_0     C     0.4781     0.5284     0.9513
A_0     C     0.636     0.9205     0.8676
A_1     C     0.602     0.4761     0.8921
A_0     C     0.4699     0.4497     0.5778
A_0     C     0.6873     0.1979     0.4399
A_1     C     0.4475     0.0269     0.871
A_3     C     0.5751     0.5684     0.8706
A_1     C     0.7286     0.0458     0.8069
A_3     C     0.4052     0.8983     0.5423
A_1     C     0.7417     0.781     0.6895
A_2     C     0.5303     0.8105     0.153
A_2     C     0.286     0.1661     0.0174
A_2     C     0.3452     0.6755     0.2427
A_0     C     0.0807     0.649     0.7769
A_1     C     0.5138     0.672     0.2423
A_0     C     0.1526     0.2335     0.362
A_0     C     0.0138     0.946     0.4907
A_3     C     0.7592     0.3916     0.2325
A_3     C     0.6024     0.541     0.0862
A_0     C     0.1051     0.5689     0.4068
A_3     C     0.6671     0.3812     0.1304
A_0     C     0.2227     0.7903     0.2213
A_1     C     0.8094     0.0987     0.9629
A_3     C     0.8106     0.1809     0.9092
A_1     C     0.3744     0.5621     0.2026
A_3     C     0.2453     0.0066     0.3902
A_2     C     0.8913     0.6936     0.4516
A_0     C     0.4462     0.3342     0.5059
A_2     C     0.8405     0.5312     0.5092
A_1     C     0.5408     0.3296     0.6325
A_2     C     0.2721     0.2281     0.754
A_2     C     0.2078     0.7325     0.7759
A_3     C     0.5066     0.3306     0.3335
A_3     C     0.0413     0.2276     0.7301
A_1     C     0.9086     0.4915     0.2122
A_3     C     0.9857     0.7782     0.8418
A_2     C     0.0223     0.7663     0.5478
A_3     C     0.9094     0.226     0.3374
A_3     C     0.6431     0.7594     0.6286
A_2     C     0.2387     0.8266     0.239
A_0     C     0.8236     0.2518     0.0937
A_0     C     0.9401     0.1722     0.2713
A_3     C     0.6884     0.797     0.1647
A_2     C     0.5523     0.332     0.7224
A_0     C     0.4341     0.6406     0.7235
A_3     C     0.7604     0.6775     0.3313
A_0     C     0.1463     0.8566     0.4652
A_2     C     0.9632     0.7536     0.2195
A_1     C     0.8516     0.2034     0.4812
A_0     C     0.7904     0.5444     0.3157
A_1     C     0.5821     0.865     0.9767
A_3     C     0.0423     0.8895     0.9338
A_1     C     0.361     0.4832     0.1054
A_3     C     0.0125     0.3695     0.7717
A_2     C     0.1678     0.3538     0.4128
A_2     C     0.1289     0.3546     0.2364
A_3     C     0.4836     0.8727     0.1542
A_3     C     0.078     0.5932     0.4627
A_0     C     0.9911     0.3189     0.7127
A_2     C     0.981     0.0527     0.3256
A_1     C     0.415     0.3285     0.9562
A_2     C     0.8995     0.1555     0.0799
A_2     C     0.9609     0.1524     0.366
A_2     C     0.7851     0.1009     0.9088
A_0     C     0.4198     0.812     0.6695
A_3     C     0.1756     0.6661     0.9262
A_0     C     0.3617     0.9894     0.7435
A_1     C     0.5676     0.0009     0.952
A_1     C     0.6788     0.2444     0.9756
A_3     C     0.174     0.2857     0.5271
A_1     C     0.1105     0.0809     0.3347
A_2     C     0.1673     0.1062     0.4342
A_0     C     0.3063     0.1929     0.5809
A_2     C     0.1549     0.9796     0.401
A_1     C     0.5781     0.4775     0.2599
A_0     C     0.7253     0.861     0.097
A_3     C     0.3303     0.5915     0.7537
A_3     C     0.9277     0.3898     0.3512
A_1     C     0.3234     0.4811     0.2851
A_1     C     0.0655     0.7227     0.5756
A_3     C     0.4696     0.0986     0.5603
A_3     C     0.8391     0.8184     0.376
A_1     C     0.6728     0.5303     0.4928
A_0     C     0.8927     0.3763     0.2469
A_1     C     0.018     0.3231     0.3477
A_3     C     0.8336     0.6106     0.3161
A_0     C     0.8907     0.5361     0.5712
A_0     C     0.7824     0.5848     0.7624
A_3     C     0.9597     0.4904     0.8366
A_2     C     0.855     0.3599     0.9102
A_3     C     0.3199     0.4765     0.1536
A_2     C     0.7493     0.0496     0.5971
A_1     C     0.4674     0.4713     0.6674
A_2     C     0.735     0.3819     0.2219
A_3     C     0.9703     0.8473     0.6039
A_1     C     0.1894     0.5923     0.5343
A_3     C     0.2256     0.203     0.3024
A_1     C     0.6744     0.0609     0.6898
A_1     C     0.5247     0.2051     0.4007
A_1     C     0.564     0.0019     0.2922
A_1     C     0.4005     0.7161     0.7546
A_0     C     0.6325     0.9874     0.83
A_2     C     0.3355     0.4817     0.9327
A_0     C     0.1927     0.5224     0.1399
A_1     C     0.2156     0.0101     0.0863
A_0     C     0.2497     0.5119     0.7709
A_2     C     0.0702     0.1204     0.7191
A_1     C     0.9612     0.8959     0.3026
A_2     C     0.4145     0.8427     0.024
A_2     C     0.9653     0.0221     0.9764
A_0     C     0.3992     0.7363     0.2043
A_2     C     0.1609     0.2911     0.5597
A_2     C     0.7223     0.2378     0.8058
A_1     C     0.1295     0.5411     0.839
A_2     C     0.7544     0.5193     0.9744
A_1     C     0.4782     0.3214     0.1054
A_1     C     0.0599     0.0508     0.9888
A_0     C     0.1941     0.4539     0.8418
A_0     C     0.1589     0.7599     0.7569
A_2     C     0.5612     0.091     0.5435
A_0     C     0.6808     0.8409     0.6748
A_1     C     0.5844     0.4464     0.0457
A_0     C     0.5242     0.2883     0.6878
A_3     C     0.0082     0.2101     0.2676
A_1     C     0.2184     0.1065     0.3417
A_2     C     0.4905     0.6736     0.8362
A_0     C     0.0761     0.7128     0.5394
A_0     C     0.6726     0.4725     0.1959
A_3     C     0.1908     0.7212     0.0347
A_1     C     0.7056     0.7949     0.5813
A_3     C     0.261     0.6475     0.9266
