MAT-40

loop_
_symmetry_equiv_pos_as_xyz
  x,y,z
_cell_length_a          16.5951
_cell_length_b          43.9957
_cell_length_c          22.1894
_cell_angle_alpha       90.0000
_cell_angle_beta        90.0000
_cell_angle_gamma       90.0000
loop_
_atom_site_label
_atom_site_type_symbol
_atom_site_fract_x
_atom_site_fract_y
_atom_site_fract_z
A_0     C     0.6641     0.251     0.8854
A_1     C     0.4471     0.1387     0.9522
A_3     C     0.9557     0.0728     0.7652
A_3     C     0.8606     0.5615     0.1707
A_2     C     0.86     0.1105     0.7328
A_1     C     0.5206     0.9469     0.465
A_1     C     0.5259     0.6569     0.0456
A_3     C     0.3775     0.6194     0.7283
A_3     C     0.5648     0.8264     0.0132
A_1     C     0.4706     0.1222     0.3487
A_3     C     0.5685     0.8516     0.8776
A_0     C     0.4645     0.6974     0.5026
A_0     C     0.639     0.5602     0.7228
A_0     C     0.4616     0.636     0.6143
A_3     C     0.4077     0.9085     0.2385
A_1     C     0.2495     0.8592     0.1994
A_0     C     0.7975     0.642     0.7014
A_1     C     0.3088     0.3771     0.7225
A_0     C     0.5349     0.2258     0.3482
A_1     C     0.8817     0.2153     0.3325
A_1     C     0.2113     0.5809     0.5091
A_0     C     0.7291     0.6247     0.4514
A_0     C     0.5681     0.6043     0.3948
A_0     C     0.4163     0.5119     0.2144
A_1     C     0.0754     0.7633     0.8762
A_1     C     0.5227     0.294     0.1184
A_3     C     0.7786     0.7668     0.9042
A_1     C     0.5596     0.8181     0.849
A_2     C     0.6204     0.4419     0.6183
A_2     C     0.8235     0.5087     0.1049
A_0     C     0.6464     0.7691     0.3077
A_2     C     0.9242     0.8098     0.708
A_3     C     0.8286     0.8823     0.0376
A_1     C     0.4011     0.3364     0.1119
A_1     C     0.1262     0.8975     0.3115
A_2     C     0.3111     0.8563     0.5613
A_1     C     0.3011     0.3403     0.0622
A_2     C     0.6366     0.5147     0.6872
A_3     C     0.3696     0.6658     0.9025
A_2     C     0.3956     0.2209     0.9852
A_1     C     0.0366     0.5548     0.671
A_2     C     0.9629     0.4247     0.5818
A_3     C     0.0368     0.4058     0.3555
A_1     C     0.2498     0.6449     0.1825
A_2     C     0.407     0.5571     0.6901
A_3     C     0.4959     0.8368     0.715
A_1     C     0.4466     0.3021     0.0897
A_2     C     0.4402     0.1105     0.779
A_3     C     0.614     0.0639     0.3335
A_0     C     0.6878     0.4279     0.0224
A_3     C     0.3619     0.0466     0.1086
A_3     C     0.7258     0.455     0.7132
A_3     C     0.4284     0.7092     0.5254
A_2     C     0.7725     0.2318     0.5163
A_3     C     0.479     0.5714     0.858
A_3     C     0.6437     0.9764     0.2022
A_3     C     0.062     0.2948     0.7773
A_0     C     0.9671     0.2095     0.9321
A_3     C     0.0964     0.9269     0.1602
A_2     C     0.252     0.5     0.8583
A_1     C     0.9697     0.8243     0.7926
A_2     C     0.4813     0.0239     0.9424
A_3     C     0.4734     0.0185     0.5921
A_2     C     0.9746     0.1514     0.9012
A_2     C     0.9755     0.707     0.5331
A_2     C     0.9529     0.2961     0.7091
A_2     C     0.4118     0.3392     0.2548
A_0     C     0.1329     0.4096     0.6852
A_1     C     0.3288     0.5259     0.7906
A_3     C     0.6356     0.8355     0.1126
A_1     C     0.5475     0.6476     0.5958
A_1     C     0.3526     0.8577     0.7751
A_1     C     0.6929     0.6899     0.0654
A_2     C     0.9946     0.0985     0.5045
A_1     C     0.3848     0.3897     0.8997
A_0     C     0.4108     0.8004     0.0398
A_0     C     0.5014     0.7299     0.9718
A_2     C     0.3613     0.9639     0.6869
A_1     C     0.6761     0.3915     0.2329
A_2     C     0.1209     0.8848     0.0298
A_3     C     0.9891     0.1287     0.2355
A_0     C     0.4579     0.9678     0.299
A_3     C     0.9621     0.6577     0.5422
A_2     C     0.6527     0.899     0.0243
A_3     C     0.3104     0.88     0.2626
A_2     C     0.4657     0.2682     0.159
A_0     C     0.1284     0.5552     0.0803
A_3     C     0.6968     0.1896     0.2582
A_3     C     0.2225     0.9003     0.2188
A_2     C     0.0121     0.8127     0.9578
A_3     C     0.5625     0.2809     0.2677
A_2     C     0.1792     0.5243     0.9704
A_1     C     0.0452     0.5689     0.1985
A_1     C     0.0189     0.6145     0.1085
A_0     C     0.0016     0.1084     0.4149
A_1     C     0.52     0.8092     0.2544
A_1     C     0.5027     0.6487     0.142
A_0     C     0.2851     0.9985     0.1002
A_0     C     0.2775     0.7593     0.9163
A_1     C     0.5629     0.6412     0.9946
A_0     C     0.3972     0.3999     0.6732
A_2     C     0.925     0.573     0.5054
A_3     C     0.5763     0.2159     0.0195
A_2     C     0.2447     0.1585     0.2613
A_2     C     0.4479     0.0545     0.2295
A_1     C     0.7526     0.2577     0.3982
A_3     C     0.5765     0.1748     0.4538
A_1     C     0.4423     0.93     0.4393
A_2     C     0.2173     0.7925     0.8263
A_2     C     0.9584     0.1337     0.599
A_1     C     0.2782     0.311     0.2753
A_0     C     0.8256     0.8259     0.2864
A_2     C     0.6042     0.2093     0.6618
A_1     C     0.1651     0.6679     0.9098
A_3     C     0.4023     0.4871     0.907
A_0     C     0.5157     0.1148     0.7035
A_2     C     0.6411     0.1074     0.6092
A_3     C     0.4671     0.5863     0.7107
A_0     C     0.815     0.5439     0.8033
A_2     C     0.4549     0.1668     0.1102
A_3     C     0.2582     0.2719     0.7669
A_1     C     0.9979     0.4187     0.4737
A_3     C     0.7821     0.9886     0.6808
A_1     C     0.0702     0.2866     0.5663
A_3     C     0.852     0.26     0.6653
A_2     C     0.1054     0.6248     0.0636
A_1     C     0.5982     0.919     0.8362
A_0     C     0.527     0.479     0.694
A_1     C     0.7749     0.2593     0.1872
A_3     C     0.7048     0.9741     0.0095
A_0     C     0.7727     0.5336     0.0286
A_2     C     0.9228     0.3016     0.9989
A_3     C     0.3983     0.5016     0.7528
A_1     C     0.3287     0.3629     0.8375
A_2     C     0.4     0.1436     0.7687
A_2     C     0.3027     0.679     0.7754
A_3     C     0.8859     0.0115     0.4711
A_0     C     0.2639     0.3117     0.0347
A_3     C     0.5756     0.296     0.3343
A_3     C     0.6994     0.5558     0.203
A_3     C     0.1409     0.24     0.3598
A_3     C     0.3447     0.1893     0.8713
A_2     C     0.673     0.3447     0.0702
A_2     C     0.5931     0.7097     0.3038
A_3     C     0.2464     0.9434     0.7083
A_0     C     0.1394     0.4791     0.4014
A_3     C     0.8975     0.4717     0.0915
A_1     C     0.347     0.8392     0.8967
A_0     C     0.2085     0.7204     0.0874
A_3     C     0.2527     0.4308     0.3618
A_0     C     0.7563     0.1993     0.7972
A_1     C     0.504     0.5635     0.556
A_3     C     0.1449     0.6687     0.0746
A_1     C     0.1362     0.9222     0.7495
A_2     C     0.8615     0.7823     0.1479
A_1     C     0.8765     0.883     0.1402
A_1     C     0.0864     0.7474     0.2614
A_3     C     0.537     0.7062     0.3359
A_2     C     0.5105     0.8671     0.136
A_3     C     0.9241     0.4037     0.6722
A_3     C     0.7751     0.9933     0.2792
A_0     C     0.6283     0.3917     0.7068
A_1     C     0.8135     0.1317     0.011
A_2     C     0.5304     0.9524     0.2962
A_0     C     0.7033     0.2932     0.7655
A_2     C     0.9489     0.8521     0.3802
A_3     C     0.998     0.3896     0.1756
A_2     C     0.5382     0.2652     0.3243
A_2     C     0.8295     0.6761     0.3809
A_0     C     0.5307     0.7698     0.9929
A_2     C     0.375     0.6631     0.3793
A_1     C     0.8248     0.9802     0.5479
A_3     C     0.0785     0.6274     0.9503
A_0     C     0.9601     0.9055     0.9936
A_3     C     0.5838     0.4243     0.0998
A_0     C     0.1331     0.1866     0.6641
A_2     C     0.1377     0.3223     0.0532
A_1     C     0.5917     0.8874     0.426
A_0     C     0.63     0.1915     0.2583
A_3     C     0.595     0.6777     0.4754
A_0     C     0.3365     0.4575     0.422
A_2     C     0.7833     0.5564     0.5623
A_0     C     0.7735     0.4122     0.2179
A_0     C     0.1142     0.8495     0.6376
A_2     C     0.7379     0.9125     0.0323
A_1     C     0.2365     0.2571     0.0513
A_0     C     0.0174     0.4714     0.1278
A_0     C     0.2608     0.3968     0.6272
A_2     C     0.6667     0.0615     0.2976
A_1     C     0.6932     0.4063     0.8516
A_3     C     0.4411     0.6061     0.0043
A_2     C     0.6871     0.8112     0.0997
A_3     C     0.0687     0.2808     0.4947
A_1     C     0.2728     0.2173     0.3589
A_3     C     0.0013     0.1478     0.977
A_0     C     0.576     0.1009     0.2475
A_2     C     0.3953     0.8761     0.4358
A_0     C     0.2937     0.6773     0.3968
A_2     C     0.0283     0.6001     0.7777
A_1     C     0.5939     0.8736     0.4362
A_1     C     0.068     0.8408     0.303
A_0     C     0.2925     0.9597     0.0074
A_3     C     0.7103     0.1948     0.4056
A_2     C     0.8904     0.7769     0.8468
A_1     C     0.7237     0.0246     0.7085
A_2     C     0.517     0.7539     0.5488
A_3     C     0.0274     0.4862     0.082
A_1     C     0.2111     0.6566     0.6079
A_3     C     0.9934     0.6925     0.6518
A_3     C     0.1964     0.4695     0.1621
A_3     C     0.8074     0.8277     0.2642
A_2     C     0.5384     0.7075     0.209
A_3     C     0.9633     0.2325     0.0985
A_0     C     0.0167     0.0366     0.1164
A_1     C     0.9624     0.6352     0.3279
A_0     C     0.421     0.8171     0.7883
A_0     C     0.3918     0.9785     0.9578
A_1     C     0.9388     0.8925     0.2994
A_3     C     0.6583     0.5064     0.4439
A_2     C     0.1366     0.2778     0.4463
A_0     C     0.2245     0.0027     0.8112
A_0     C     0.565     0.8545     0.4446
A_2     C     0.0164     0.2897     0.8808
A_2     C     0.3846     0.6036     0.7727
A_3     C     0.2639     0.9609     0.5021
A_3     C     0.0482     0.7653     0.2999
A_1     C     0.6573     0.7215     0.1617
A_2     C     0.4222     0.4601     0.1044
A_2     C     0.3276     0.5469     0.7372
A_1     C     0.4159     0.2424     0.4868
A_1     C     0.8885     0.5099     0.1764
A_0     C     0.2535     0.0591     0.1061
A_2     C     0.4275     0.8687     0.6835
A_0     C     0.8791     0.8261     0.6439
A_2     C     0.904     0.2059     0.7599
A_3     C     0.861     0.5989     0.4961
A_3     C     0.5709     0.9677     0.4873
A_3     C     0.8573     0.0522     0.7797
A_3     C     0.0273     0.8989     0.4343
A_3     C     0.8565     0.9893     0.9679
A_2     C     0.5995     0.6206     0.4831
A_1     C     0.7427     0.9412     0.8154
A_3     C     0.4533     0.943     0.6574
A_2     C     0.0361     0.9862     0.8759
A_3     C     0.9907     0.1553     0.2436
A_3     C     0.0911     0.0866     0.3825
A_3     C     0.1002     0.7436     0.3674
A_2     C     0.4966     0.5928     0.1568
A_0     C     0.9588     0.2556     0.9773
A_2     C     0.5104     0.4847     0.2281
A_2     C     0.8552     0.2762     0.7604
A_2     C     0.6025     0.1514     0.7709
A_3     C     0.9563     0.8533     0.1624
A_2     C     0.6824     0.4951     0.9052
A_1     C     0.5807     0.7409     0.0957
A_1     C     0.0355     0.0026     0.5758
A_2     C     0.9074     0.6038     0.307
A_2     C     0.2605     0.9292     0.8423
A_3     C     0.2001     0.1915     0.043
A_1     C     0.7272     0.4178     0.3563
A_2     C     0.5789     0.2234     0.6202
A_3     C     0.6142     0.7514     0.8602
A_1     C     0.3059     0.7833     0.9546
A_1     C     0.414     0.5034     0.5939
A_3     C     0.6539     0.5916     0.2225
A_1     C     0.9468     0.847     0.8272
A_1     C     0.4744     0.2455     0.0931
A_1     C     0.1283     0.0747     0.5006
A_2     C     0.8892     0.5413     0.8897
A_3     C     0.6048     0.6657     0.8613
A_2     C     0.0868     0.9994     0.9673
A_0     C     0.0668     0.1444     0.0788
A_0     C     0.1652     0.4455     0.9144
A_3     C     0.7329     0.6177     0.2767
A_2     C     0.1325     0.8989     0.8181
A_0     C     0.665     0.0375     0.9101
A_2     C     0.7766     0.2972     0.7564
A_2     C     0.9331     0.6083     0.7473
A_2     C     0.0619     0.9006     0.7501
A_0     C     0.9072     0.8905     0.1475
A_3     C     0.5368     0.0986     0.6939
A_1     C     0.5518     0.2156     0.5603
A_0     C     0.983     0.9228     0.2566
A_2     C     0.3308     0.4512     0.7371
A_1     C     0.1277     0.868     0.2366
A_1     C     0.0459     0.8298     0.7167
A_1     C     0.7198     0.8764     0.5152
A_3     C     0.0163     0.3752     0.4527
A_2     C     0.9193     0.0301     0.0569
A_2     C     0.7573     0.8443     0.294
A_1     C     0.522     0.9943     0.6176
A_0     C     0.7374     0.8929     0.1157
A_1     C     0.9932     0.2276     0.3953
A_3     C     0.9594     0.5099     0.4237
A_3     C     0.1256     0.617     0.1087
A_3     C     0.2799     0.1502     0.8364
A_0     C     0.0742     0.316     0.4453
A_1     C     0.9203     0.9217     0.5019
A_2     C     0.5396     0.1222     0.896
A_1     C     0.5824     0.908     0.6467
A_3     C     0.8297     0.3969     0.0962
A_3     C     0.6643     0.7582     0.2059
A_2     C     0.1377     0.686     0.5962
A_1     C     0.1127     0.898     0.4895
A_1     C     0.3481     0.7822     0.6265
A_1     C     0.3356     0.9608     0.732
A_1     C     0.1291     0.2121     0.9463
A_3     C     0.6697     0.9547     0.6035
A_1     C     0.3441     0.7675     0.6066
A_3     C     0.9835     0.5224     0.1811
A_2     C     0.0285     0.3598     0.2465
A_2     C     0.9304     0.7977     0.669
A_0     C     0.8315     0.3656     0.5246
A_0     C     0.3882     0.0609     0.1454
A_1     C     0.247     0.3776     0.5933
A_3     C     0.2155     0.5601     0.1474
A_0     C     0.0363     0.1478     0.4683
A_1     C     0.2048     0.7447     0.9872
A_1     C     0.1636     0.8644     0.4951
A_1     C     0.1873     0.7952     0.3582
A_2     C     0.6182     0.4579     0.2624
A_1     C     0.4137     0.7404     0.2825
A_0     C     0.6124     0.5773     0.605
A_0     C     0.5704     0.8544     0.5835
A_1     C     0.7728     0.263     0.8615
A_2     C     0.4586     0.3223     0.826
A_3     C     0.9007     0.871     0.7669
A_0     C     0.6976     0.5005     0.7266
A_3     C     0.4365     0.9818     0.0553
A_2     C     0.5116     0.4616     0.185
A_1     C     0.4148     0.6737     0.6988
A_2     C     0.2899     0.9484     0.5136
A_0     C     0.4752     0.1377     0.0599
A_3     C     0.8332     0.3598     0.1867
A_1     C     0.7737     0.8634     0.8173
A_1     C     0.7901     0.8413     0.8679
A_3     C     0.7922     0.8022     0.5628
A_3     C     0.2987     0.5093     0.2669
A_1     C     0.0456     0.1036     0.2097
A_0     C     0.5368     0.2808     0.3449
A_3     C     0.3968     0.2314     0.198
A_0     C     0.4174     0.8985     0.8653
A_0     C     0.0233     0.862     0.8411
A_0     C     0.7338     0.6787     0.3552
A_2     C     0.7408     0.4647     0.8976
A_2     C     0.7676     0.9715     0.5445
A_0     C     0.6388     0.4228     0.6446
A_2     C     0.6533     0.6982     0.5618
A_1     C     0.9094     0.5901     0.7147
A_3     C     0.2064     0.4963     0.1203
A_2     C     0.5034     0.7804     0.0522
A_0     C     0.7612     0.6054     0.1287
A_3     C     0.7915     0.7336     0.8318
A_3     C     0.7389     0.9314     0.5003
A_0     C     0.9261     0.2288     0.4853
A_1     C     0.4472     0.5116     0.412
A_0     C     0.2088     0.005     0.1209
A_0     C     0.8469     0.8422     0.7839
A_0     C     0.6853     0.9485     0.3739
A_2     C     0.6451     0.54     0.9001
A_0     C     0.6052     0.0036     0.7282
A_1     C     0.4422     0.0769     0.3086
A_0     C     0.4766     0.9026     0.4196
A_3     C     0.3728     0.2937     0.8611
A_1     C     0.0419     0.2554     0.6961
A_0     C     0.1559     0.5445     0.0665
A_1     C     0.3478     0.7173     0.1998
A_0     C     0.0388     0.8354     0.0504
A_2     C     0.0714     0.523     0.8931
A_0     C     0.7146     0.6444     0.8884
A_3     C     0.3689     0.0246     0.4405
A_2     C     0.0075     0.7419     0.5061
A_2     C     0.7506     0.6949     0.4098
A_3     C     0.2456     0.7825     0.8277
A_0     C     0.9577     0.6022     0.4288
A_2     C     0.4843     0.398     0.879
A_3     C     0.2173     0.481     0.0274
A_0     C     0.1114     0.7184     0.4427
A_3     C     0.5022     0.2262     0.1363
A_2     C     0.9752     0.956     0.5708
A_2     C     0.3805     0.7995     0.7496
A_3     C     0.1295     0.0488     0.2367
A_3     C     0.3792     0.4746     0.9429
A_2     C     0.4028     0.6083     0.5819
A_2     C     0.5185     0.8245     0.8949
A_2     C     0.3684     0.9263     0.5363
A_2     C     0.7782     0.5374     0.0926
A_2     C     0.6419     0.9405     0.7361
A_3     C     0.4826     0.0601     0.4861
A_2     C     0.2832     0.4889     0.51
A_3     C     0.5291     0.9627     0.5415
A_0     C     0.4056     0.9174     0.2383
A_2     C     0.8352     0.7973     0.0606
A_2     C     0.2277     0.9793     0.9949
A_2     C     0.4134     0.8081     0.1834
A_0     C     0.0915     0.8463     0.8481
A_1     C     0.2035     0.3584     0.3593
A_2     C     0.0192     0.4285     0.5109
A_2     C     0.5989     0.607     0.6357
A_0     C     0.744     0.4034     0.0814
A_1     C     0.6109     0.5085     0.534
A_3     C     0.5111     0.9097     0.7282
A_0     C     0.3712     0.8936     0.1607
A_0     C     0.856     0.8399     0.0324
A_2     C     0.9776     0.5006     0.0513
A_1     C     0.7877     0.1415     0.3743
A_0     C     0.2864     0.2183     0.8451
A_3     C     0.6772     0.1388     0.814
A_2     C     0.423     0.1191     0.4276
A_0     C     0.8536     0.02     0.8066
A_2     C     0.8094     0.8099     0.3735
A_0     C     0.8252     0.1404     0.07
A_2     C     0.7165     0.9029     0.1965
A_2     C     0.1054     0.4466     0.3309
A_3     C     0.1251     0.387     0.371
A_3     C     0.8102     0.0278     0.9664
A_2     C     0.4598     0.3339     0.3836
A_1     C     0.7669     0.0875     0.6843
A_1     C     0.1618     0.5082     0.0216
A_3     C     0.0786     0.1094     0.4725
A_1     C     0.617     0.7444     0.9433
A_3     C     0.4174     0.1124     0.0712
A_2     C     0.1395     0.0221     0.2215
A_0     C     0.3217     0.6136     0.5409
A_2     C     0.8542     0.9189     0.0914
A_0     C     0.8131     0.4133     0.3075
A_0     C     0.4764     0.391     0.9541
A_1     C     0.0153     0.7184     0.4668
A_0     C     0.1026     0.5578     0.4748
A_3     C     0.5423     0.4175     0.1304
A_2     C     0.5356     0.4677     0.9936
A_1     C     0.5648     0.4067     0.7927
A_1     C     0.0535     0.9182     0.3678
A_2     C     0.2209     0.2336     0.6925
A_1     C     0.3883     0.7636     0.8867
A_0     C     0.986     0.8036     0.2409
A_2     C     0.3906     0.2622     0.5055
A_1     C     0.5881     0.5881     0.997
A_3     C     0.6651     0.3906     0.4792
A_2     C     0.9161     0.4783     0.0955
A_2     C     0.7542     0.6786     0.5107
A_2     C     0.3541     0.5081     0.8185
A_1     C     0.1397     0.8318     0.1093
A_2     C     0.4333     0.4678     0.1412
A_2     C     0.1352     0.8367     0.1026
A_2     C     0.4413     0.8171     0.4298
A_2     C     0.0047     0.0315     0.8032
A_2     C     0.1945     0.2084     0.5734
A_3     C     0.2376     0.3715     0.8823
A_1     C     0.6473     0.9702     0.2616
A_0     C     0.179     0.9179     0.2164
A_3     C     0.2194     0.0592     0.6536
A_0     C     0.495     0.8764     0.5003
A_0     C     0.3744     0.6358     0.0967
A_2     C     0.4774     0.586     0.6969
A_0     C     0.5136     0.1287     0.9027
A_0     C     0.674     0.2598     0.1186
A_2     C     0.0593     0.5628     0.7253
A_3     C     0.4696     0.2504     0.0311
A_1     C     0.9092     0.9647     0.9517
A_1     C     0.6522     0.4823     0.45
A_2     C     0.8819     0.2425     0.4062
A_1     C     0.5249     0.0612     0.7133
A_0     C     0.0298     0.8826     0.7485
A_2     C     0.3497     0.9067     0.5025
A_1     C     0.4673     0.6166     0.9746
A_2     C     0.5866     0.9936     0.0144
A_2     C     0.1268     0.31     0.6205
A_1     C     0.4319     0.8629     0.4593
A_1     C     0.5545     0.8272     0.3835
A_1     C     0.0809     0.7893     0.2646
A_0     C     0.3852     0.4624     0.9725
A_0     C     0.271     0.4206     0.8251
A_1     C     0.2406     0.1834     0.1052
A_1     C     0.5443     0.4541     0.7678
A_2     C     0.4238     0.4486     0.2721
A_3     C     0.597     0.8926     0.8421
A_1     C     0.6358     0.1933     0.9492
A_2     C     0.6632     0.2401     0.5702
A_0     C     0.6164     0.3687     0.5414
A_3     C     0.5815     0.306     0.0855
A_3     C     0.5186     0.193     0.1002
A_2     C     0.1691     0.0034     0.8758
A_1     C     0.0728     0.498     0.4584
A_3     C     0.3854     0.9664     0.5625
A_2     C     0.7374     0.8029     0.4721
A_2     C     0.6612     0.566     0.2648
A_2     C     0.7323     0.9501     0.3646
A_3     C     0.8089     0.8158     0.5581
A_2     C     0.9277     0.111     0.3944
A_3     C     0.7174     0.5069     0.6198
A_1     C     0.0782     0.4192     0.9714
A_2     C     0.9511     0.9844     0.9348
A_1     C     0.35     0.7539     0.477
A_1     C     0.729     0.5012     0.6706
A_1     C     0.8227     0.2906     0.6066
A_1     C     0.8967     0.9443     0.7431
A_0     C     0.3742     0.1857     0.9899
A_0     C     0.2468     0.4975     0.743
A_0     C     0.2075     0.2328     0.8996
A_0     C     0.1489     0.9791     0.5338
A_1     C     0.4672     0.2257     0.9987
A_1     C     0.1202     0.8007     0.099
A_2     C     0.7975     0.6674     0.3958
A_1     C     0.4978     0.1369     0.6071
A_3     C     0.0883     0.3882     0.2009
A_3     C     0.3933     0.4987     0.1867
A_0     C     0.5682     0.9701     0.1866
A_2     C     0.5884     0.7607     0.4636
A_0     C     0.5451     0.452     0.5315
A_0     C     0.9164     0.1508     0.0902
A_3     C     0.5799     0.7696     0.868
A_1     C     0.6461     0.3198     0.1197
A_1     C     0.6307     0.3468     0.7387
A_1     C     0.0882     0.6098     0.6209
A_0     C     0.1391     0.7055     0.3679
A_2     C     0.9665     0.8634     0.1544
A_1     C     0.3807     0.0397     0.5074
A_2     C     0.5946     0.9729     0.7817
A_1     C     0.6544     0.8969     0.0307
A_1     C     0.888     0.5839     0.7126
A_3     C     0.5294     0.3123     0.561
A_2     C     0.2944     0.2973     0.1473
A_2     C     0.3638     0.2233     0.18
A_3     C     0.0358     0.2832     0.7854
A_0     C     0.1716     0.3445     0.7796
A_1     C     0.6604     0.3988     0.9522
A_1     C     0.3328     0.936     0.427
A_3     C     0.661     0.2961     0.8763
A_1     C     0.0883     0.7012     0.5547
A_3     C     0.65     0.4615     0.7103
A_0     C     0.2276     0.7051     0.3964
A_2     C     0.9271     0.0928     0.4464
A_0     C     0.3295     0.1297     0.8517
A_3     C     0.9417     0.5658     0.8564
A_1     C     0.8717     0.7888     0.242
A_0     C     0.9412     0.9042     0.3799
A_3     C     0.3379     0.3877     0.3971
A_3     C     0.8912     0.0384     0.5852
A_2     C     0.0531     0.9946     0.7465
A_2     C     0.5725     0.2348     0.3938
A_2     C     0.124     0.9501     0.3126
A_3     C     0.9697     0.7284     0.2199
A_1     C     0.5215     0.4406     0.8672
A_2     C     0.7675     0.3668     0.2215
A_0     C     0.8593     0.9788     0.733
A_1     C     0.5401     0.6873     0.918
A_1     C     0.6276     0.1949     0.1061
A_1     C     0.3825     0.6147     0.0442
A_0     C     0.9829     0.9383     0.3099
A_3     C     0.0982     0.3096     0.895
A_2     C     0.9149     0.6496     0.0456
A_0     C     0.6714     0.0526     0.3481
A_2     C     0.4954     0.888     0.2622
A_2     C     0.4458     0.6959     0.6272
A_1     C     0.1414     0.7585     0.3282
A_1     C     0.9391     0.9972     0.0782
A_1     C     0.8285     0.5498     0.4279
A_1     C     0.2774     0.115     0.8538
A_0     C     0.91     0.8293     0.9172
A_3     C     0.3792     0.0093     0.4382
A_0     C     0.5424     0.8725     0.2405
A_0     C     0.5248     0.5939     0.5213
A_2     C     0.2253     0.5505     0.4647
A_1     C     0.3876     0.0374     0.1781
A_1     C     0.793     0.9895     0.9624
A_3     C     0.1755     0.4947     0.6861
A_2     C     0.9957     0.9559     0.8217
A_3     C     0.8268     0.9719     0.611
A_0     C     0.4233     0.2353     0.2271
A_2     C     0.3078     0.6271     0.3831
A_1     C     0.8387     0.8687     0.6714
A_2     C     0.8506     0.4157     0.7225
A_0     C     0.328     0.3541     0.3386
A_1     C     0.0481     0.4102     0.5959
A_3     C     0.6239     0.8632     0.0244
A_3     C     0.6981     0.4465     0.506
A_2     C     0.6621     0.603     0.1226
A_0     C     0.1162     0.4585     0.5354
A_0     C     0.3064     0.1332     0.2007
A_0     C     0.1547     0.2293     0.0093
A_3     C     0.8252     0.9154     0.3007
A_3     C     0.4181     0.2401     0.4695
A_3     C     0.6507     0.1693     0.341
A_1     C     0.2076     0.4416     0.7132
A_2     C     0.7521     0.4897     0.6807
A_1     C     0.636     0.929     0.8248
A_0     C     0.5097     0.1659     0.7442
A_3     C     0.5204     0.3805     0.29
A_1     C     0.7951     0.6355     0.5802
A_3     C     0.3953     0.6564     0.6629
A_1     C     0.6487     0.4122     0.413
A_3     C     0.8615     0.7523     0.3801
A_1     C     0.6481     0.2307     0.2711
A_0     C     0.2198     0.5792     0.7523
A_0     C     0.6703     0.504     0.1958
A_0     C     0.9585     0.3923     0.5476
A_3     C     0.9172     0.437     0.5073
A_0     C     0.2414     0.4152     0.6225
A_1     C     0.9246     0.856     0.7158
A_3     C     0.2982     0.2647     0.8415
A_2     C     0.4353     0.897     0.2117
A_0     C     0.8191     0.4898     0.9441
A_3     C     0.9097     0.7256     0.5018
A_2     C     0.6588     0.7186     0.7458
A_1     C     0.7764     0.2432     0.4439
A_2     C     0.4798     0.0217     0.1024
A_0     C     0.2255     0.638     0.2502
A_2     C     0.9204     0.4474     0.4239
A_1     C     0.8967     0.0132     0.5926
A_3     C     0.615     0.0573     0.9972
A_1     C     0.3257     0.4163     0.3318
A_0     C     0.9535     0.1353     0.2256
A_1     C     0.361     0.8095     0.2722
A_0     C     0.1995     0.4449     0.2802
A_3     C     0.3447     0.3201     0.2175
A_0     C     0.5045     0.5824     0.3123
A_3     C     0.455     0.6545     0.4207
A_0     C     0.7754     0.4688     0.4891
A_2     C     0.3087     0.9356     0.8918
A_2     C     0.466     0.3447     0.0923
A_2     C     0.7582     0.7951     0.973
A_2     C     0.1866     0.5819     0.9561
A_3     C     0.8607     0.4881     0.3023
A_0     C     0.3369     0.4348     0.1616
A_1     C     0.3325     0.5824     0.0094
A_3     C     0.5122     0.7325     0.7174
A_3     C     0.1475     0.7736     0.6383
A_3     C     0.0137     0.7936     0.1671
A_2     C     0.8875     0.9207     0.249
A_2     C     0.4154     0.6253     0.9106
A_2     C     0.1097     0.7856     0.7165
A_3     C     0.44     0.8588     0.2351
A_0     C     0.0487     0.5441     0.8988
A_3     C     0.8666     0.9825     0.8548
A_2     C     0.955     0.5539     0.2666
A_2     C     0.9468     0.2733     0.7673
A_2     C     0.6022     0.5252     0.2787
A_1     C     0.5275     0.8184     0.7886
A_2     C     0.7317     0.6884     0.5033
A_1     C     0.9482     0.9744     0.5497
A_1     C     0.3897     0.0235     0.5599
A_3     C     0.8266     0.7727     0.2196
A_1     C     0.0319     0.4076     0.3063
A_1     C     0.0256     0.5441     0.2609
A_0     C     0.6654     0.63     0.882
A_3     C     0.5529     0.3867     0.4058
A_0     C     0.6378     0.6276     0.6532
A_0     C     0.1325     0.0187     0.4688
A_0     C     0.5572     0.3259     0.3413
A_2     C     0.3875     0.1109     0.6962
A_3     C     0.4903     0.8596     0.1063
A_0     C     0.4773     0.8868     0.2645
A_2     C     0.8026     0.2332     0.0231
A_3     C     0.9644     0.0426     0.9563
A_0     C     0.0651     0.9323     0.2411
A_1     C     0.7716     0.8052     0.201
A_1     C     0.8526     0.3312     0.118
A_0     C     0.7331     0.0745     0.8715
A_3     C     0.4848     0.8555     0.6589
A_3     C     0.3789     0.5513     0.1186
A_0     C     0.9732     0.0647     0.2448
A_3     C     0.2944     0.2301     0.5911
A_2     C     0.1109     0.3064     0.96
A_3     C     0.7068     0.9395     0.9356
A_2     C     0.6263     0.1425     0.037
A_0     C     0.8792     0.2091     0.6412
A_1     C     0.6954     0.0302     0.1417
A_3     C     0.2388     0.8681     0.0416
A_1     C     0.1785     0.0072     0.3643
A_2     C     0.6476     0.087     0.0631
A_2     C     0.6889     0.4221     0.1124
A_1     C     0.4028     0.8269     0.3922
A_0     C     0.0758     0.045     0.7791
A_0     C     0.1868     0.446     0.7744
A_2     C     0.702     0.3393     0.2931
A_1     C     0.0197     0.5809     0.0973
A_3     C     0.7569     0.3796     0.9516
A_2     C     0.0495     0.8363     0.2656
A_1     C     0.5716     0.0651     0.4514
A_1     C     0.7808     0.4387     0.1724
A_0     C     0.704     0.6323     0.7279
A_1     C     0.4738     0.3066     0.3881
A_3     C     0.3224     0.3104     0.3115
A_0     C     0.1128     0.8081     0.0848
A_0     C     0.3388     0.0831     0.7813
A_1     C     0.9692     0.7423     0.8138
A_3     C     0.7459     0.3999     0.4018
A_1     C     0.8282     0.3783     0.7898
A_2     C     0.6904     0.16     0.1877
A_1     C     0.2775     0.6368     0.3454
A_3     C     0.7698     0.8004     0.4661
A_1     C     0.009     0.1819     0.6571
A_2     C     0.1738     0.6498     0.7994
A_0     C     0.2223     0.1355     0.1147
A_0     C     0.4292     0.5039     0.6811
A_3     C     0.7824     0.9135     0.2149
A_0     C     0.1007     0.1158     0.4988
A_0     C     0.2369     0.4131     0.7318
A_0     C     0.6909     0.3181     0.5612
A_2     C     0.8308     0.306     0.7738
A_0     C     0.8872     0.7317     0.3558
A_0     C     0.1463     0.9704     0.0379
A_1     C     0.1299     0.0961     0.1697
A_3     C     0.281     0.4673     0.7414
A_1     C     0.9083     0.8008     0.7251
A_3     C     0.0723     0.4574     0.2853
A_2     C     0.7837     0.9739     0.0053
A_0     C     0.8019     0.7099     0.1163
A_3     C     0.9488     0.0803     0.6596
A_1     C     0.0307     0.2736     0.4746
A_1     C     0.1216     0.8952     0.8812
A_2     C     0.4867     0.7295     0.486
A_2     C     0.8026     0.6519     0.7528
A_3     C     0.7127     0.9649     0.9636
A_0     C     0.199     0.0425     0.3746
A_3     C     0.1717     0.9288     0.2639
A_0     C     0.1094     0.9769     0.7475
A_0     C     0.2394     0.5299     0.5917
A_3     C     0.402     0.6454     0.9762
A_2     C     0.1283     0.4465     0.1357
A_2     C     0.5231     0.1561     0.8609
A_0     C     0.5044     0.2362     0.4046
A_3     C     0.3527     0.4057     0.9446
A_3     C     0.8819     0.2649     0.0894
A_2     C     0.9554     0.3602     0.1459
A_3     C     0.2639     0.8193     0.1471
A_1     C     0.1306     0.5124     0.5278
A_0     C     0.0021     0.6549     0.7809
A_2     C     0.3476     0.881     0.9263
A_1     C     0.4676     0.7823     0.279
A_2     C     0.4465     0.8353     0.2764
A_1     C     0.5253     0.9437     0.198
A_2     C     0.4793     0.68     0.3704
A_1     C     0.2809     0.1459     0.1958
A_0     C     0.401     0.4645     0.85
A_3     C     0.2724     0.1793     0.5243
A_3     C     0.4574     0.9018     0.6527
A_2     C     0.069     0.1068     0.5
A_3     C     0.7143     0.3369     0.5542
A_2     C     0.1073     0.1585     0.8827
A_3     C     0.5084     0.1611     0.4818
A_2     C     0.9763     0.4984     0.339
A_2     C     0.6262     0.3831     0.5273
A_3     C     0.3727     0.2575     0.1853
A_0     C     0.1645     0.2603     0.4327
A_0     C     0.0094     0.4842     0.075
A_2     C     0.4099     0.0744     0.8762
A_2     C     0.9167     0.7787     0.9843
A_3     C     0.7371     0.5043     0.1538
A_2     C     0.2432     0.3972     0.1465
A_1     C     0.622     0.468     0.9159
A_0     C     0.6438     0.5811     0.8061
A_2     C     0.1637     0.1014     0.7142
A_0     C     0.7622     0.0224     0.475
A_0     C     0.4648     0.0592     0.2171
A_3     C     0.8737     0.6213     0.6654
A_2     C     0.0799     0.2604     0.6012
A_0     C     0.9849     0.978     0.562
A_0     C     0.479     0.3554     0.2439
A_1     C     0.02     0.7394     0.3641
A_2     C     0.1299     0.5023     0.0918
A_0     C     0.0138     0.4566     0.4079
A_0     C     0.3661     0.7902     0.7437
A_0     C     0.5946     0.7959     0.238
A_1     C     0.463     0.5642     0.8001
A_1     C     0.7159     0.392     0.444
A_0     C     0.4018     0.2744     0.3959
A_2     C     0.7779     0.104     0.0684
A_0     C     0.9903     0.0899     0.8979
A_0     C     0.6126     0.284     0.3924
A_1     C     0.602     0.7723     0.2417
A_3     C     0.6576     0.5982     0.3865
A_3     C     0.4344     0.645     0.843
A_0     C     0.4393     0.5804     0.0168
A_3     C     0.2214     0.8712     0.8315
A_2     C     0.2497     0.5174     0.3912
A_2     C     0.3228     0.393     0.1396
A_1     C     0.8249     0.6318     0.7808
A_0     C     0.5405     0.5761     0.0036
A_3     C     0.1719     0.848     0.9263
A_0     C     0.1636     0.4737     0.9661
A_0     C     0.4392     0.5968     0.3265
A_3     C     0.9234     0.4476     0.7382
A_1     C     0.7874     0.6263     0.7925
A_3     C     0.3986     0.8728     0.9535
A_2     C     0.5752     0.6711     0.3622
A_0     C     0.1609     0.1802     0.1066
A_0     C     0.5367     0.4403     0.2749
A_1     C     0.3988     0.2974     0.3006
A_1     C     0.0087     0.5562     0.1258
A_0     C     0.8958     0.4002     0.6971
A_1     C     0.3031     0.9112     0.5616
A_2     C     0.9729     0.4472     0.0825
A_3     C     0.0356     0.1357     0.9355
A_2     C     0.3994     0.2041     0.1337
A_1     C     0.109     0.9558     0.653
A_0     C     0.9478     0.7428     0.5132
A_1     C     0.612     0.0193     0.4291
A_3     C     0.316     0.561     0.8854
A_1     C     0.2165     0.639     0.6964
A_0     C     0.6879     0.7743     0.2331
A_0     C     0.1405     0.3883     0.2155
A_0     C     0.6989     0.2668     0.4255
A_0     C     0.7778     0.2308     0.1651
A_2     C     0.9966     0.2442     0.308
A_0     C     0.6156     0.7086     0.8698
A_2     C     0.2277     0.2287     0.0605
A_0     C     0.107     0.7062     0.549
A_3     C     0.7887     0.7041     0.7696
A_3     C     0.7061     0.699     0.3069
A_0     C     0.6996     0.8022     0.4382
A_2     C     0.2105     0.4868     0.6062
A_3     C     0.474     0.1707     0.8862
A_0     C     0.6732     0.3966     0.1244
A_1     C     0.9019     0.9013     0.4792
A_2     C     0.3527     0.8279     0.062
A_3     C     0.8394     0.7609     0.3303
A_1     C     0.273     0.8503     0.5106
A_2     C     0.6306     0.1695     0.9701
A_2     C     0.7223     0.0589     0.719
A_3     C     0.1223     0.3968     0.1908
A_0     C     0.949     0.8848     0.9426
A_0     C     0.5757     0.3235     0.1992
A_1     C     0.64     0.29     0.7268
A_0     C     0.9907     0.6008     0.1484
A_3     C     0.4312     0.4712     0.466
A_3     C     0.8225     0.7486     0.9799
A_2     C     0.1457     0.9174     0.8678
A_3     C     0.4148     0.3666     0.6626
A_2     C     0.5587     0.3732     0.6415
A_1     C     0.2494     0.9909     0.855
A_1     C     0.8854     0.1973     0.1612
A_3     C     0.0635     0.6011     0.9444
A_0     C     0.4128     0.6717     0.3301
A_3     C     0.5104     0.1838     0.8567
A_0     C     0.7946     0.7666     0.8194
A_3     C     0.2411     0.538     0.2921
A_1     C     0.7393     0.164     0.5443
A_0     C     0.8164     0.9944     0.2073
A_0     C     0.613     0.5695     0.5734
A_3     C     0.6223     0.271     0.5336
A_3     C     0.6877     0.4339     0.1059
A_2     C     0.8306     0.5301     0.2036
A_1     C     0.8663     0.6145     0.4327
A_1     C     0.5419     0.843     0.9626
A_2     C     0.6275     0.8028     0.386
A_3     C     0.7585     0.1732     0.6106
