MAT-29

loop_
_symmetry_equiv_pos_as_xyz
  x,y,z
_cell_length_a          35.6162
_cell_length_b          36.6086
_cell_length_c          25.4058
_cell_angle_alpha       90.0000
_cell_angle_beta        90.0000
_cell_angle_gamma       90.0000
loop_
_atom_site_label
_atom_site_type_symbol
_atom_site_fract_x
_atom_site_fract_y
_atom_site_fract_z
A_0     C     0.2709     0.6223     0.164
A_1     C     0.8738     0.9131     0.855
A_2     C     0.9596     0.0931     0.1561
A_0     C     0.7577     0.3864     0.6843
A_2     C     0.081     0.9137     0.8632
A_3     C     0.9783     0.7615     0.1252
A_3     C     0.4488     0.6715     0.7947
A_1     C     0.0836     0.4249     0.5967
A_3     C     0.9864     0.53     0.8304
A_0     C     0.4242     0.4005     0.595
A_1     C     0.7696     0.9203     0.0549
A_0     C     0.7988     0.6662     0.4426
A_2     C     0.6482     0.7793     0.3095
A_3     C     0.4941     0.7164     0.8559
A_1     C     0.5398     0.9611     0.0087
A_1     C     0.7542     0.3028     0.8904
A_2     C     0.8267     0.1528     0.2454
A_3     C     0.0033     0.5922     0.3904
A_3     C     0.855     0.0861     0.0256
A_0     C     0.0255     0.3016     0.7313
A_1     C     0.9188     0.3842     0.8446
A_0     C     0.0245     0.2424     0.3281
A_3     C     0.2505     0.8181     0.4322
A_2     C     0.0563     0.3438     0.9554
A_3     C     0.4671     0.8898     0.5802
A_3     C     0.5933     0.6922     0.8202
A_3     C     0.6902     0.9534     0.3637
A_2     C     0.2639     0.8761     0.6217
A_2     C     0.5218     0.5073     0.1844
A_2     C     0.9875     0.0951     0.8338
A_2     C     0.278     0.7572     0.6723
A_0     C     0.9593     0.4256     0.3942
A_1     C     0.961     0.204     0.6195
A_2     C     0.819     0.7289     0.9193
A_0     C     0.0294     0.5738     0.8827
A_0     C     0.9802     0.9239     0.5931
A_1     C     0.3885     0.71     0.9414
A_3     C     0.0344     0.8318     0.7127
A_1     C     0.7767     0.7381     0.8181
A_1     C     0.7748     0.2732     0.6834
A_3     C     0.8882     0.8429     0.292
A_1     C     0.7878     0.3392     0.1099
A_3     C     0.671     0.8575     0.6803
A_0     C     0.8137     0.3121     0.9225
A_2     C     0.4222     0.7873     0.4884
A_2     C     0.0702     0.609     0.5202
A_3     C     0.4587     0.3475     0.5208
A_0     C     0.7126     0.6761     0.5654
A_2     C     0.2417     0.6466     0.108
A_1     C     0.2786     0.7666     0.8432
A_3     C     0.4525     0.4703     0.2597
A_2     C     0.3117     0.5243     0.2414
A_0     C     0.2199     0.8818     0.066
A_2     C     0.6841     0.0457     0.6264
A_3     C     0.0671     0.0703     0.4609
A_3     C     0.9231     0.0856     0.0175
A_3     C     0.41     0.1238     0.1791
A_1     C     0.8256     0.3836     0.6864
A_2     C     0.9427     0.1857     0.2547
A_1     C     0.4965     0.709     0.4282
A_1     C     0.313     0.8196     0.5123
A_0     C     0.7307     0.0774     0.5624
A_1     C     0.5756     0.786     0.5794
A_3     C     0.0684     0.3781     0.6801
A_3     C     0.2571     0.7821     0.0006
A_1     C     0.3923     0.1862     0.9183
A_2     C     0.0116     0.0797     0.8303
A_1     C     0.0765     0.2578     0.2373
A_0     C     0.9233     0.1307     0.3889
A_1     C     0.4077     0.334     0.7308
A_3     C     0.6156     0.7814     0.2599
A_1     C     0.5521     0.9752     0.2528
A_1     C     0.4614     0.8063     0.0372
A_2     C     0.4467     0.8897     0.9691
A_1     C     0.4364     0.2448     0.1233
A_1     C     0.9009     0.7897     0.76
A_0     C     0.7795     0.4809     0.8462
A_1     C     0.6649     0.8592     0.7588
A_2     C     0.9668     0.5371     0.0474
A_3     C     0.0457     0.4886     0.2042
A_2     C     0.8347     0.116     0.2553
A_2     C     0.506     0.9766     0.2131
A_1     C     0.715     0.4578     0.7507
A_0     C     0.7328     0.7017     0.4755
A_1     C     0.0308     0.5743     0.0785
A_3     C     0.6752     0.1238     0.5593
A_0     C     0.4994     0.0912     0.8859
A_1     C     0.8839     0.9179     0.2473
A_2     C     0.6489     0.3842     0.7899
A_1     C     0.9937     0.9005     0.6651
A_1     C     0.5058     0.0643     0.2165
A_0     C     0.9638     0.7693     0.8327
A_0     C     0.2597     0.7269     0.9709
A_2     C     0.4773     0.821     0.7675
A_2     C     0.6972     0.0058     0.6676
A_3     C     0.0775     0.034     0.0603
A_1     C     0.0051     0.4817     0.392
A_2     C     0.486     0.5224     0.1606
A_3     C     0.0818     0.8563     0.715
A_2     C     0.1544     0.1245     0.859
A_2     C     0.9155     0.0148     0.6222
A_2     C     0.628     0.9016     0.654
A_1     C     0.8368     0.7246     0.3994
A_0     C     0.7068     0.1349     0.7374
A_2     C     0.61     0.2937     0.8937
A_1     C     0.8345     0.9616     0.8629
A_3     C     0.9495     0.6343     0.0333
A_1     C     0.498     0.9973     0.4076
A_2     C     0.8193     0.8235     0.0409
A_3     C     0.9094     0.2179     0.9962
A_2     C     0.5059     0.4086     0.88
A_3     C     0.71     0.894     0.6541
A_3     C     0.684     0.8942     0.533
A_1     C     0.0257     0.6361     0.6728
A_2     C     0.021     0.1983     0.02
A_3     C     0.5401     0.5277     0.9661
A_2     C     0.4532     0.778     0.0249
A_0     C     0.1767     0.2452     0.4091
A_2     C     0.3305     0.9729     0.1649
A_3     C     0.9037     0.9522     0.5214
A_3     C     0.0931     0.5343     0.4346
A_2     C     0.3529     0.1707     0.4243
A_0     C     0.0821     0.4788     0.3685
A_2     C     0.2634     0.108     0.2267
A_3     C     0.8496     0.6567     0.0734
A_0     C     0.2291     0.1022     0.1674
A_3     C     0.7937     0.8875     0.5141
A_2     C     0.5624     0.1796     0.6139
A_1     C     0.0925     0.6415     0.8114
A_2     C     0.2828     0.8677     0.266
A_3     C     0.7017     0.2878     0.9642
A_0     C     0.3836     0.4178     0.3421
A_1     C     0.6883     0.0413     0.5191
A_3     C     0.5703     0.8518     0.552
A_2     C     0.9968     0.7484     0.8914
A_3     C     0.1472     0.3701     0.2782
A_3     C     0.8026     0.2141     0.5276
A_2     C     0.2254     0.8587     0.2629
A_0     C     0.771     0.5982     0.152
A_1     C     0.628     0.0257     0.8167
A_2     C     0.1152     0.7588     0.2733
A_2     C     0.7872     0.5245     0.4209
A_0     C     0.3192     0.5067     0.2201
A_1     C     0.5367     0.0646     0.1862
A_3     C     0.544     0.4286     0.0853
A_1     C     0.6109     0.8484     0.0572
A_1     C     0.0238     0.9086     0.5577
A_1     C     0.5718     0.8426     0.2877
A_2     C     0.0711     0.6915     0.4912
A_2     C     0.2303     0.7669     0.6921
A_3     C     0.9022     0.4638     0.2385
A_3     C     0.0086     0.5036     0.0056
A_1     C     0.6695     0.3255     0.6553
A_1     C     0.8594     0.7155     0.3448
A_2     C     0.8664     0.2793     0.0729
A_1     C     0.2135     0.2966     0.9198
A_3     C     0.583     0.8471     0.568
A_0     C     0.8625     0.364     0.5867
A_3     C     0.6009     0.3506     0.9433
A_3     C     0.104     0.2607     0.9129
A_0     C     0.2378     0.6775     0.6407
A_3     C     0.9232     0.9852     0.9076
A_0     C     0.553     0.5633     0.1066
A_2     C     0.3641     0.1396     0.8427
A_2     C     0.811     0.5897     0.9222
A_1     C     0.6087     0.9447     0.8199
A_3     C     0.4423     0.3912     0.0354
A_2     C     0.421     0.5408     0.4303
A_2     C     0.1438     0.7837     0.3838
A_0     C     0.7336     0.1819     0.9372
A_3     C     0.3821     0.0048     0.9314
A_1     C     0.3016     0.4704     0.4874
A_3     C     0.0148     0.3023     0.4827
A_0     C     0.0633     0.1099     0.4955
A_2     C     0.3645     0.8978     0.4219
A_2     C     0.3851     0.1158     0.9442
A_1     C     0.6939     0.7358     0.0273
A_0     C     0.8896     0.119     0.9956
A_2     C     0.9197     0.7647     0.1872
A_1     C     0.7988     0.0927     0.2916
A_2     C     0.1307     0.1643     0.4587
A_3     C     0.3357     0.5253     0.7041
A_0     C     0.6598     0.1942     0.5718
A_3     C     0.7011     0.2615     0.1705
A_1     C     0.6255     0.8775     0.0182
A_1     C     0.669     0.305     0.8413
A_0     C     0.4746     0.1097     0.8723
A_1     C     0.3674     0.3424     0.2951
A_1     C     0.9706     0.4456     0.8132
A_2     C     0.5171     0.936     0.4899
A_1     C     0.0775     0.6906     0.8032
A_2     C     0.7385     0.7308     0.2068
A_2     C     0.5804     0.8247     0.6205
A_3     C     0.7201     0.2441     0.2397
A_0     C     0.8164     0.0922     0.2292
A_2     C     0.8915     0.9995     0.427
A_2     C     0.3201     0.2488     0.5933
A_1     C     0.9964     0.8689     0.0029
A_2     C     0.8597     0.6698     0.6175
A_2     C     0.692     0.1103     0.3668
A_1     C     0.351     0.1534     0.7267
A_2     C     0.2921     0.3662     0.0496
A_0     C     0.543     0.9305     0.8051
A_2     C     0.4208     0.2537     0.0764
A_2     C     0.5827     0.5153     0.655
A_0     C     0.2047     0.086     0.689
A_3     C     0.9396     0.4332     0.2606
A_0     C     0.5245     0.0374     0.5916
A_0     C     0.4997     0.6793     0.1842
A_2     C     0.6099     0.5652     0.9726
A_0     C     0.0511     0.6011     0.3045
A_1     C     0.7166     0.9474     0.9194
A_0     C     0.2647     0.5431     0.6729
A_3     C     0.3374     0.9742     0.087
A_0     C     0.8287     0.0709     0.3528
A_1     C     0.1615     0.6013     0.1032
A_1     C     0.9978     0.2906     0.1885
A_1     C     0.3164     0.1767     0.8955
A_1     C     0.4669     0.3223     0.2858
A_1     C     0.5264     0.0349     0.1256
A_3     C     0.0522     0.2897     0.1999
A_2     C     0.0643     0.1409     0.5272
A_2     C     0.1841     0.1037     0.3006
A_1     C     0.0958     0.0614     0.9869
A_1     C     0.4909     0.6346     0.0517
A_2     C     0.0954     0.4527     0.2046
A_0     C     0.8443     0.3076     0.0586
A_1     C     0.2785     0.2743     0.51
A_0     C     0.4213     0.4033     0.7398
A_2     C     0.6086     0.2084     0.6656
A_1     C     0.9597     0.6527     0.5472
A_1     C     0.9824     0.8846     0.4433
A_0     C     0.301     0.5341     0.2684
A_1     C     0.4762     0.3712     0.1331
A_2     C     0.0803     0.5854     0.2249
A_1     C     0.2692     0.0929     0.8392
A_0     C     0.4475     0.9689     0.4904
A_1     C     0.7755     0.2125     0.4491
A_2     C     0.4676     0.3204     0.4393
A_1     C     0.2376     0.8543     0.3213
A_3     C     0.9424     0.4883     0.1289
A_1     C     0.1834     0.8435     0.0825
A_1     C     0.0516     0.1798     0.3824
A_0     C     0.124     0.6263     0.9429
A_1     C     0.8422     0.6428     0.8117
A_3     C     0.9484     0.229     0.0629
A_1     C     0.0355     0.4026     0.7022
A_2     C     0.4337     0.3095     0.0879
A_2     C     0.4521     0.8775     0.9699
A_0     C     0.5692     0.1122     0.6618
A_1     C     0.4722     0.038     0.2781
A_2     C     0.3861     0.9862     0.2812
A_0     C     0.6244     0.495     0.864
A_1     C     0.6707     0.1055     0.5385
A_0     C     0.7309     0.853     0.9728
A_3     C     0.411     0.5134     0.5535
A_3     C     0.2991     0.1221     0.8045
A_2     C     0.4094     0.7967     0.0506
A_1     C     0.3789     0.0315     0.9944
A_3     C     0.8116     0.5522     0.3556
A_0     C     0.0199     0.2294     0.306
A_3     C     0.7416     0.5235     0.911
A_2     C     0.743     0.0041     0.2206
A_2     C     0.1256     0.1395     0.0042
A_1     C     0.6818     0.4182     0.6103
A_0     C     0.5292     0.021     0.907
A_3     C     0.4043     0.0929     0.3898
A_0     C     0.0329     0.2346     0.5437
A_3     C     0.9206     0.1199     0.1652
A_0     C     0.901     0.9963     0.0197
A_1     C     0.3401     0.2898     0.1656
A_2     C     0.9221     0.2204     0.3378
A_0     C     0.1974     0.7008     0.6818
A_3     C     0.4053     0.5264     0.011
A_1     C     0.4441     0.339     0.908
A_3     C     0.0729     0.0356     0.8899
A_3     C     0.0706     0.088     0.1215
A_0     C     0.7898     0.5818     0.4023
A_0     C     0.685     0.9109     0.5439
A_2     C     0.2123     0.8605     0.2109
A_2     C     0.0797     0.9969     0.1458
A_1     C     0.3754     0.1047     0.3237
A_0     C     0.9518     0.5219     0.394
A_3     C     0.8656     0.6096     0.2359
A_3     C     0.867     0.6836     0.628
A_2     C     0.7613     0.4487     0.6884
A_2     C     0.195     0.406     0.448
A_3     C     0.1628     0.6149     0.1858
A_3     C     0.9693     0.9293     0.7451
A_2     C     0.7808     0.6283     0.2394
A_2     C     0.8605     0.1753     0.9056
A_3     C     0.9731     0.228     0.7061
A_2     C     0.9423     0.3749     0.7023
A_1     C     0.7255     0.8673     0.0301
A_1     C     0.5669     0.6127     0.167
A_3     C     0.2218     0.2297     0.2771
A_2     C     0.157     0.9439     0.5349
A_3     C     0.6411     0.2657     0.9196
A_2     C     0.7762     0.5494     0.5012
A_2     C     0.221     0.2359     0.1237
A_2     C     0.0491     0.1158     0.7051
A_2     C     0.069     0.9575     0.6501
A_1     C     0.5623     0.7821     0.0308
A_1     C     0.5224     0.0274     0.7937
A_0     C     0.865     0.6048     0.6349
A_0     C     0.3367     0.626     0.1331
A_2     C     0.1832     0.4028     0.9243
A_3     C     0.9089     0.7456     0.8623
A_1     C     0.1117     0.8397     0.8549
A_3     C     0.3136     0.213     0.5994
A_2     C     0.2007     0.9527     0.083
A_1     C     0.1962     0.6251     0.7343
A_0     C     0.1032     0.2183     0.3986
A_2     C     0.9255     0.5785     0.4382
A_1     C     0.768     0.8271     0.9763
A_2     C     0.8207     0.4488     0.1599
A_2     C     0.7574     0.656     0.549
A_0     C     0.335     0.4726     0.1082
A_0     C     0.0614     0.3649     0.9667
A_1     C     0.5725     0.5018     0.0462
A_2     C     0.1125     0.7985     0.7536
A_2     C     0.8158     0.6015     0.4784
A_0     C     0.2715     0.7201     0.9689
A_3     C     0.0142     0.027     0.4227
A_1     C     0.0409     0.4854     0.8282
A_1     C     0.1818     0.2072     0.6232
A_2     C     0.1316     0.9519     0.8504
A_3     C     0.2055     0.4132     0.616
A_3     C     0.245     0.2805     0.837
A_1     C     0.379     0.6778     0.7512
A_2     C     0.6404     0.5548     0.1047
A_0     C     0.5538     0.7578     0.5265
A_0     C     0.2173     0.3518     0.5734
A_0     C     0.6146     0.2699     0.2485
A_1     C     0.1884     0.8422     0.3304
A_1     C     0.5436     0.1002     0.1308
A_3     C     0.4695     0.0317     0.6629
A_2     C     0.0728     0.4484     0.078
A_1     C     0.9149     0.8556     0.7403
A_1     C     0.7726     0.9821     0.4325
A_2     C     0.6376     0.0153     0.0155
A_1     C     0.5654     0.684     0.6175
A_0     C     0.5171     0.3087     0.2007
A_1     C     0.6536     0.1313     0.6816
A_3     C     0.9637     0.4763     0.5993
A_0     C     0.9655     0.4857     0.2448
A_2     C     0.3269     0.6699     0.0156
A_1     C     0.9534     0.8406     0.8278
A_1     C     0.6815     0.7366     0.1234
A_2     C     0.3347     0.6937     0.3704
A_3     C     0.4281     0.251     0.3961
A_0     C     0.9644     0.4271     0.2285
A_3     C     0.9627     0.022     0.9428
A_0     C     0.5013     0.6187     0.1892
A_2     C     0.1631     0.9494     0.9826
A_0     C     0.613     0.6631     0.554
A_3     C     0.4991     0.438     0.1855
A_3     C     0.199     0.7308     0.8112
A_2     C     0.2919     0.5825     0.7978
A_1     C     0.5505     0.8358     0.8872
A_1     C     0.1652     0.0752     0.0483
A_1     C     0.923     0.954     0.6034
A_3     C     0.9905     0.7405     0.5909
A_0     C     0.2568     0.3614     0.0727
A_3     C     0.157     0.1919     0.9929
A_1     C     0.9057     0.9507     0.4766
A_1     C     0.3892     0.2056     0.2206
A_1     C     0.2874     0.2203     0.7229
A_0     C     0.1134     0.6347     0.2877
A_3     C     0.5579     0.0375     0.5763
A_0     C     0.0695     0.1534     0.5165
A_0     C     0.8868     0.8276     0.7585
A_3     C     0.819     0.4614     0.7967
A_3     C     0.7074     0.3555     0.3564
A_0     C     0.9197     0.0581     0.1312
A_3     C     0.2378     0.6721     0.3427
A_3     C     0.546     0.8692     0.829
A_3     C     0.793     0.8672     0.1099
A_0     C     0.3657     0.5174     0.0277
A_3     C     0.6512     0.3247     0.1118
A_1     C     0.4917     0.7001     0.687
A_1     C     0.9877     0.2494     0.8013
A_3     C     0.6902     0.7178     0.7392
A_2     C     0.8964     0.5741     0.7556
A_2     C     0.5808     0.5552     0.3536
A_3     C     0.404     0.1685     0.3581
A_1     C     0.4377     0.2856     0.4485
A_3     C     0.0966     0.8301     0.7554
A_2     C     0.4428     0.812     0.094
A_2     C     0.7699     0.2306     0.2609
A_2     C     0.2937     0.4322     0.248
A_0     C     0.1732     0.887     0.5668
A_3     C     0.7495     0.4905     0.5839
A_2     C     0.2588     0.7624     0.6012
A_1     C     0.5926     0.2143     0.1044
A_2     C     0.3698     0.779     0.9834
A_2     C     0.8365     0.8597     0.1838
A_1     C     0.857     0.2103     0.2863
A_0     C     0.8639     0.0612     0.9371
A_3     C     0.1824     0.5263     0.2178
A_2     C     0.9399     0.8549     0.2898
A_1     C     0.1851     0.127     0.4022
A_3     C     0.1296     0.5319     0.2235
A_1     C     0.0255     0.1828     0.2749
A_0     C     0.1332     0.0452     0.6619
A_2     C     0.0883     0.5026     0.1654
A_3     C     0.7968     0.116     0.8414
A_0     C     0.093     0.6585     0.9849
A_2     C     0.0791     0.7394     0.0346
A_3     C     0.3159     0.7078     0.427
A_1     C     0.8799     0.0737     0.3839
A_1     C     0.9792     0.2727     0.142
A_3     C     0.1485     0.6991     0.3916
A_0     C     0.7352     0.6176     0.8018
A_2     C     0.8976     0.3517     0.4287
A_3     C     0.1188     0.6372     0.8672
A_0     C     0.4087     0.0605     0.262
A_1     C     0.618     0.3193     0.6268
A_2     C     0.6527     0.775     0.1467
A_2     C     0.2896     0.993     0.6371
A_3     C     0.5602     0.6186     0.4035
A_1     C     0.9282     0.5789     0.077
A_1     C     0.2771     0.7083     0.5162
A_1     C     0.8315     0.102     0.6211
A_2     C     0.2936     0.9622     0.2206
A_1     C     0.1885     0.2749     0.3397
A_2     C     0.4589     0.4426     0.8912
A_1     C     0.8184     0.2071     0.893
A_1     C     0.715     0.3938     0.9957
A_1     C     0.8548     0.192     0.4248
A_1     C     0.8316     0.3673     0.2365
A_1     C     0.3904     0.0292     0.0434
A_2     C     0.3545     0.9019     0.2462
A_1     C     0.7814     0.2583     0.0444
A_2     C     0.8137     0.6629     0.8039
A_3     C     0.3009     0.3192     0.8824
A_1     C     0.0856     0.83     0.2824
A_2     C     0.9975     0.3677     0.983
A_1     C     0.2169     0.9203     0.3292
A_1     C     0.3907     0.0463     0.2202
A_3     C     0.3671     0.8539     0.1441
A_3     C     0.6002     0.5512     0.1809
A_1     C     0.781     0.7223     0.2116
A_0     C     0.3245     0.0079     0.4319
A_0     C     0.1228     0.4349     0.6994
A_3     C     0.582     0.4667     0.3121
A_3     C     0.81     0.5284     0.9927
A_2     C     0.4103     0.8332     0.9388
A_0     C     0.4478     0.6656     0.0265
A_3     C     0.9908     0.8544     0.3428
A_3     C     0.4384     0.302     0.7811
A_0     C     0.7578     0.7393     0.418
A_2     C     0.7158     0.6917     0.5996
A_0     C     0.2603     0.2602     0.9979
A_0     C     0.8005     0.8961     0.0478
A_0     C     0.9278     0.3433     0.9992
A_0     C     0.7092     0.0541     0.9558
A_0     C     0.0152     0.4134     0.143
A_3     C     0.8785     0.404     0.7929
A_3     C     0.7527     0.0077     0.1519
A_3     C     0.8191     0.4658     0.7307
A_0     C     0.3353     0.6207     0.7393
A_2     C     0.5975     0.5986     0.2497
A_2     C     0.6083     0.6251     0.2131
A_1     C     0.0944     0.7733     0.5976
A_3     C     0.6922     0.2692     0.2467
A_2     C     0.3236     0.7138     0.4292
A_0     C     0.8076     0.3998     0.2468
A_1     C     0.1905     0.2984     0.1965
A_0     C     0.9136     0.1775     0.4114
A_2     C     0.3747     0.7074     0.7179
A_1     C     0.4609     0.8282     0.0578
A_3     C     0.5431     0.5188     0.6865
A_1     C     0.7374     0.1806     0.2318
A_2     C     0.1074     0.3686     0.7796
A_3     C     0.027     0.2179     0.9675
A_2     C     0.629     0.7486     0.0278
A_1     C     0.8493     0.5146     0.2731
A_0     C     0.2901     0.8334     0.4166
A_0     C     0.2613     0.9891     0.7358
A_3     C     0.3359     0.808     0.5449
A_2     C     0.9606     0.244     0.7922
A_3     C     0.274     0.8601     0.917
A_3     C     0.5171     0.9886     0.9941
A_3     C     0.1193     0.1316     0.9269
A_3     C     0.1329     0.9285     0.0353
A_3     C     0.4204     0.9363     0.7584
A_1     C     0.706     0.1122     0.9035
A_2     C     0.7793     0.3892     0.5018
A_2     C     0.4487     0.7261     0.1768
A_3     C     0.6675     0.3266     0.7577
A_1     C     0.7183     0.7321     0.1222
A_2     C     0.7282     0.6096     0.9565
A_3     C     0.6265     0.4213     0.7146
A_0     C     0.8157     0.5048     0.0639
A_1     C     0.1271     0.5753     0.6529
A_0     C     0.0736     0.9338     0.2
A_1     C     0.1441     0.0969     0.4153
A_3     C     0.2501     0.6357     0.2982
A_2     C     0.2039     0.9345     0.7211
A_3     C     0.1597     0.5887     0.5068
A_2     C     0.7679     0.3086     0.3299
A_0     C     0.2269     0.146     0.3422
A_2     C     0.2503     0.2295     0.6192
A_1     C     0.4693     0.704     0.5621
A_0     C     0.747     0.8758     0.5355
A_1     C     0.9535     0.2798     0.531
A_2     C     0.742     0.4974     0.8872
A_1     C     0.8598     0.8725     0.1159
A_0     C     0.5858     0.8463     0.8743
A_3     C     0.7416     0.516     0.39
A_3     C     0.5135     0.283     0.3579
A_2     C     0.2729     0.5624     0.8892
A_1     C     0.9049     0.2499     0.4167
A_1     C     0.1153     0.4026     0.0441
A_1     C     0.4598     0.6497     0.2959
A_0     C     0.2618     0.2461     0.5444
A_3     C     0.9708     0.4114     0.8667
A_0     C     0.4912     0.6682     0.1621
A_0     C     0.2626     0.5678     0.1239
A_1     C     0.5347     0.5474     0.8203
A_0     C     0.8904     0.7117     0.4104
A_1     C     0.1368     0.2274     0.6799
A_3     C     0.2388     0.2013     0.1499
A_2     C     0.4358     0.8076     0.4328
A_2     C     0.0263     0.5797     0.8774
A_1     C     0.4483     0.7036     0.2818
A_1     C     0.9494     0.2242     0.5122
A_1     C     0.0352     0.3285     0.617
A_3     C     0.7936     0.9846     0.1345
A_2     C     0.2054     0.8483     0.6503
A_0     C     0.85     0.4897     0.3501
A_3     C     0.8478     0.5212     0.9924
A_3     C     0.8669     0.2664     0.6569
A_2     C     0.4602     0.542     0.8033
A_2     C     0.586     0.8936     0.7705
A_0     C     0.2045     0.7518     0.4236
A_3     C     0.7963     0.6589     0.2689
A_3     C     0.1102     0.7041     0.4887
A_2     C     0.214     0.2852     0.5211
A_2     C     0.6313     0.6796     0.7664
A_3     C     0.2255     0.7119     0.2686
A_1     C     0.0923     0.6899     0.4805
A_3     C     0.8571     0.9265     0.2744
A_1     C     0.7762     0.3883     0.5139
A_0     C     0.8909     0.7727     0.8016
A_0     C     0.7577     0.7379     0.7858
A_2     C     0.4978     0.1358     0.4507
A_2     C     0.4502     0.8416     0.1326
A_2     C     0.0461     0.8911     0.8503
A_2     C     0.539     0.9282     0.5323
A_3     C     0.9346     0.4612     0.1198
A_1     C     0.0256     0.5236     0.1723
A_2     C     0.4853     0.5101     0.0406
A_3     C     0.7154     0.2901     0.2204
A_2     C     0.7864     0.0466     0.5187
A_2     C     0.669     0.4001     0.0186
A_2     C     0.3674     0.0344     0.9102
A_3     C     0.7059     0.2749     0.5298
A_2     C     0.0891     0.119     0.402
A_2     C     0.9296     0.184     0.7493
A_0     C     0.2895     0.8136     0.1129
A_2     C     0.8009     0.0154     0.7888
A_0     C     0.1857     0.6476     0.5524
A_1     C     0.8057     0.1619     0.2798
A_2     C     0.6565     0.2655     0.1104
A_1     C     0.0193     0.3411     0.3032
A_3     C     0.3357     0.3926     0.7726
A_0     C     0.7292     0.0075     0.3794
A_0     C     0.3255     0.0355     0.9192
A_2     C     0.228     0.5268     0.4696
A_0     C     0.1702     0.7352     0.1437
A_0     C     0.905     0.2963     0.672
A_1     C     0.0063     0.6789     0.3832
A_0     C     0.3874     0.5618     0.6067
A_3     C     0.0785     0.4441     0.135
A_0     C     0.1776     0.4158     0.7256
A_0     C     0.4667     0.7582     0.2124
A_0     C     0.8981     0.9874     0.1545
A_3     C     0.6517     0.6023     0.4693
A_1     C     0.8889     0.9117     0.0809
A_3     C     0.4844     0.5862     0.493
A_2     C     0.2409     0.6784     0.1006
A_3     C     0.9699     0.8398     0.4561
A_1     C     0.68     0.1435     0.1362
A_3     C     0.9402     0.8539     0.3612
A_0     C     0.8303     0.7394     0.1673
A_0     C     0.9546     0.5266     0.616
A_0     C     0.4112     0.5523     0.5456
A_1     C     0.4953     0.3862     0.1699
A_0     C     0.8287     0.7308     0.1025
A_3     C     0.0505     0.4929     0.8869
A_2     C     0.121     0.7198     0.6611
A_3     C     0.8143     0.4332     0.1337
A_0     C     0.1826     0.173     0.5377
A_1     C     0.0451     0.0423     0.6723
A_2     C     0.1813     0.8031     0.8929
A_3     C     0.9192     0.8157     0.2662
A_2     C     0.2481     0.0275     0.7207
A_2     C     0.1564     0.8574     0.202
A_3     C     0.2001     0.0156     0.8237
A_0     C     0.6334     0.8063     0.4188
A_1     C     0.7659     0.669     0.1915
A_0     C     0.6507     0.9835     0.5552
A_1     C     0.2007     0.2132     0.467
A_2     C     0.3379     0.4085     0.4662
A_3     C     0.202     0.0427     0.6372
A_0     C     0.685     0.5552     0.9019
A_2     C     0.6184     0.2867     0.0636
A_2     C     0.2594     0.7643     0.8745
A_0     C     0.0551     0.5981     0.3213
A_1     C     0.0193     0.723     0.0871
A_1     C     0.9176     0.4967     0.0743
A_1     C     0.9245     0.6403     0.7702
A_2     C     0.0887     0.1712     0.4076
A_3     C     0.0202     0.4948     0.4103
A_1     C     0.7219     0.8531     0.1155
A_0     C     0.6365     0.732     0.3583
A_2     C     0.465     0.3036     0.8303
A_1     C     0.5438     0.525     0.7342
A_1     C     0.3098     0.2907     0.4139
A_3     C     0.3249     0.8545     0.4571
A_0     C     0.6503     0.7682     0.2568
A_1     C     0.3091     0.3761     0.1978
A_0     C     0.0057     0.8257     0.8363
A_0     C     0.9164     0.9059     0.5771
A_3     C     0.4178     0.1155     0.6313
A_2     C     0.3794     0.7002     0.5122
A_1     C     0.065     0.9938     0.8619
A_0     C     0.0611     0.4351     0.314
A_1     C     0.0876     0.0638     0.9631
A_0     C     0.3645     0.746     0.1879
A_3     C     0.9195     0.2035     0.6805
A_2     C     0.3827     0.824     0.6413
A_1     C     0.6933     0.457     0.6828
A_2     C     0.8072     0.9186     0.1528
A_1     C     0.1129     0.6838     0.8428
A_0     C     0.0643     0.8509     0.2306
A_3     C     0.4098     0.475     0.785
A_2     C     0.1309     0.6036     0.9297
A_0     C     0.2228     0.3991     0.2564
A_3     C     0.8462     0.858     0.8909
A_2     C     0.5831     0.7144     0.7738
A_2     C     0.7202     0.3459     0.5577
A_3     C     0.3612     0.1376     0.5335
A_1     C     0.7371     0.8882     0.3362
A_3     C     0.3799     0.2691     0.4351
A_1     C     0.9726     0.7059     0.9587
A_2     C     0.133     0.5758     0.4495
A_2     C     0.9539     0.5743     0.5784
A_0     C     0.9121     0.6354     0.4932
A_3     C     0.1193     0.7411     0.9014
A_2     C     0.4847     0.8384     0.2261
A_2     C     0.9138     0.3465     0.5113
A_2     C     0.6361     0.4123     0.244
A_0     C     0.0634     0.791     0.1489
A_2     C     0.7706     0.1139     0.1834
A_3     C     0.1348     0.1006     0.4989
A_1     C     0.9221     0.04     0.4846
A_3     C     0.5173     0.1385     0.6937
A_3     C     0.4507     0.0156     0.9953
A_3     C     0.9736     0.4603     0.1045
A_2     C     0.4375     0.8897     0.4308
A_3     C     0.9241     0.6178     0.7536
A_2     C     0.2713     0.4761     0.8222
A_2     C     0.3962     0.8453     0.0931
A_1     C     0.8784     0.3806     0.0353
A_0     C     0.9871     0.4629     0.9489
A_0     C     0.1534     0.449     0.9238
A_0     C     0.6518     0.8819     0.8667
A_2     C     0.4839     0.2114     0.0795
A_3     C     0.6207     0.5499     0.8183
A_2     C     0.5713     0.8842     0.4595
A_2     C     0.3637     0.0297     0.3459
A_1     C     0.2089     0.7167     0.1445
A_2     C     0.0617     0.9339     0.3035
A_0     C     0.3197     0.5178     0.6556
A_3     C     0.7077     0.5674     0.5936
A_2     C     0.463     0.3401     0.9377
A_3     C     0.0386     0.0215     0.5932
A_2     C     0.5687     0.9857     0.7355
A_0     C     0.9962     0.7584     0.9972
A_2     C     0.3254     0.2287     0.291
A_2     C     0.5934     0.9768     0.765
A_0     C     0.8137     0.0556     0.2978
A_2     C     0.8538     0.7918     0.6993
A_1     C     0.5808     0.8772     0.8774
A_1     C     0.1628     0.9763     0.6952
A_1     C     0.0227     0.052     0.9881
A_3     C     0.294     0.0109     0.6241
A_2     C     0.0395     0.4777     0.4538
A_2     C     0.5744     0.8243     0.0649
A_0     C     0.5647     0.9313     0.2018
A_3     C     0.2697     0.2662     0.8506
A_2     C     0.2301     0.4866     0.1109
A_0     C     0.9475     0.4693     0.6537
A_1     C     0.7135     0.5952     0.6976
A_2     C     0.5343     0.4319     0.1166
A_3     C     0.0226     0.6518     0.3054
A_2     C     0.9603     0.9494     0.4606
A_0     C     0.265     0.8709     0.9525
A_1     C     0.8049     0.1392     0.9679
A_1     C     0.4706     0.358     0.2921
A_3     C     0.5468     0.5504     0.4833
A_1     C     0.2298     0.1358     0.532
A_1     C     0.6381     0.485     0.099
A_0     C     0.0444     0.8386     0.9046
A_2     C     0.5557     0.9602     0.3843
A_3     C     0.9341     0.7805     0.8855
A_0     C     0.4278     0.1877     0.4295
A_2     C     0.343     0.8896     0.4932
A_0     C     0.4276     0.9258     0.083
A_1     C     0.0862     0.3593     0.3461
A_0     C     0.7505     0.9099     0.9295
A_1     C     0.9179     0.4364     0.8512
A_2     C     0.7498     0.98     0.5848
A_1     C     0.4827     0.4449     0.5653
A_2     C     0.593     0.1962     0.107
A_0     C     0.9571     0.6251     0.3414
A_1     C     0.7209     0.1833     0.338
A_2     C     0.7622     0.7556     0.0223
A_1     C     0.8113     0.7175     0.9311
A_0     C     0.2238     0.343     0.0859
A_3     C     0.3244     0.2285     0.993
A_1     C     0.392     0.3324     0.7622
A_0     C     0.156     0.0012     0.0296
A_3     C     0.6885     0.5429     0.6642
A_1     C     0.1106     0.7461     0.9277
A_0     C     0.5104     0.9383     0.388
A_2     C     0.7172     0.3436     0.7215
A_3     C     0.3238     0.1401     0.4385
A_3     C     0.8508     0.7803     0.016
A_1     C     0.9074     0.3746     0.7061
A_1     C     0.9228     0.42     0.6418
A_1     C     0.5432     0.3767     0.2286
A_0     C     0.8962     0.7505     0.7895
A_2     C     0.9348     0.6933     0.2972
A_1     C     0.0835     0.7628     0.4206
A_1     C     0.2067     0.9282     0.1815
A_2     C     0.5506     0.0641     0.9018
A_2     C     0.4715     0.2211     0.087
A_0     C     0.7926     0.3446     0.2919
A_3     C     0.2155     0.6081     0.7991
A_3     C     0.7254     0.9026     0.8221
A_2     C     0.1972     0.4416     0.1246
A_1     C     0.9865     0.6891     0.6583
A_3     C     0.2868     0.2239     0.1689
A_1     C     0.8406     0.9693     0.8697
A_0     C     0.5685     0.7525     0.2123
A_3     C     0.5928     0.2636     0.8901
A_0     C     0.8622     0.0526     0.0824
A_2     C     0.2712     0.4025     0.0243
A_0     C     0.6692     0.7739     0.0003
A_2     C     0.5804     0.5146     0.4691
A_1     C     0.9523     0.5574     0.9975
A_3     C     0.2881     0.369     0.8471
A_3     C     0.7312     0.6067     0.3157
A_0     C     0.3178     0.5741     0.9999
A_0     C     0.9502     0.7038     0.4802
A_3     C     0.1309     0.5132     0.0842
A_2     C     0.6906     0.2839     0.9914
A_2     C     0.7593     0.5274     0.6401
A_1     C     0.5672     0.2261     0.423
A_2     C     0.7467     0.0456     0.7681
A_1     C     0.2287     0.2406     0.2307
A_3     C     0.1987     0.3777     0.5843
A_2     C     0.7974     0.0861     0.352
A_1     C     0.2165     0.0995     0.3068
A_3     C     0.064     0.3827     0.5321
A_0     C     0.2963     0.2626     0.7941
A_0     C     0.9585     0.4947     0.5214
A_1     C     0.2779     0.4398     0.1359
A_0     C     0.7334     0.3727     0.753
A_0     C     0.73     0.525     0.9848
A_3     C     0.4343     0.56     0.0964
A_3     C     0.8427     0.4043     0.8164
A_2     C     0.8035     0.0685     0.5097
A_0     C     0.9115     0.4118     0.392
A_1     C     0.8803     0.2155     0.2463
A_3     C     0.4755     0.9191     0.6031
A_1     C     0.3628     0.8718     0.4225
A_3     C     0.1431     0.7793     0.1788
A_3     C     0.006     0.893     0.4098
A_2     C     0.2757     0.1763     0.1121
A_3     C     0.8318     0.4684     0.2501
A_0     C     0.7584     0.579     0.214
A_2     C     0.571     0.9125     0.8876
A_2     C     0.3339     0.8496     0.0857
A_2     C     0.9661     0.343     0.2741
A_1     C     0.9394     0.9948     0.6041
A_1     C     0.2404     0.0047     0.7248
A_3     C     0.6581     0.0801     0.0159
A_1     C     0.6448     0.4897     0.8302
A_1     C     0.9431     0.6355     0.2051
A_0     C     0.0877     0.6386     0.5885
A_0     C     0.7248     0.6185     0.0585
A_0     C     0.7931     0.0973     0.6923
A_1     C     0.5441     0.2306     0.7413
A_2     C     0.4203     0.9888     0.2769
A_3     C     0.5922     0.2842     0.7971
A_1     C     0.7929     0.1561     0.3337
A_2     C     0.4752     0.5589     0.5192
A_3     C     0.8256     0.5591     0.8868
A_3     C     0.1146     0.5338     0.1157
A_3     C     0.8794     0.6442     0.7522
A_1     C     0.6608     0.8684     0.1033
A_1     C     0.987     0.1492     0.5894
A_3     C     0.4679     0.7774     0.4304
A_0     C     0.3596     0.2554     0.573
A_3     C     0.8677     0.8353     0.2705
A_1     C     0.8848     0.0414     0.6391
A_3     C     0.1481     0.7544     0.6314
A_2     C     0.8931     0.0253     0.4097
A_3     C     0.1401     0.9675     0.1759
A_3     C     0.3602     0.8875     0.796
A_1     C     0.441     0.2236     0.0536
A_1     C     0.9793     0.1615     0.8746
A_2     C     0.6451     0.4355     0.8451
A_3     C     0.6027     0.8451     0.4788
A_2     C     0.6637     0.3508     0.1839
A_1     C     0.3896     0.8197     0.6255
A_1     C     0.887     0.5848     0.2214
A_2     C     0.9136     0.8363     0.8779
A_3     C     0.9368     0.5637     0.5288
A_3     C     0.511     0.655     0.5647
A_1     C     0.1437     0.3881     0.9718
A_0     C     0.7507     0.5239     0.6963
A_1     C     0.4581     0.7885     0.7508
A_2     C     0.5043     0.853     0.2472
A_3     C     0.7094     0.1966     0.2312
A_2     C     0.7614     0.191     0.415
A_1     C     0.2747     0.268     0.4774
A_2     C     0.53     0.6995     0.2285
A_3     C     0.443     0.9135     0.5958
A_3     C     0.7507     0.1845     0.1866
A_0     C     0.0261     0.5049     0.0574
A_3     C     0.1266     0.8994     0.0595
A_2     C     0.2177     0.264     0.8522
A_1     C     0.7042     0.9843     0.1207
A_0     C     0.4469     0.0573     0.9034
A_1     C     0.1072     0.6687     0.3649
A_0     C     0.2949     0.9365     0.7454
A_3     C     0.4772     0.7882     0.1815
A_1     C     0.2602     0.9325     0.6901
A_0     C     0.7312     0.6364     0.4645
A_2     C     0.7151     0.0256     0.5954
A_1     C     0.9833     0.6372     0.0629
A_0     C     0.7734     0.7326     0.1511
A_3     C     0.0389     0.6286     0.7926
A_0     C     0.6132     0.2055     0.2395
A_1     C     0.4778     0.7748     0.2687
A_3     C     0.0065     0.9533     0.2914
A_1     C     0.0209     0.8397     0.7558
A_3     C     0.5686     0.5154     0.5458
A_2     C     0.2185     0.383     0.4869
A_0     C     0.4469     0.8854     0.4187
A_1     C     0.3841     0.6748     0.5313
A_3     C     0.1652     0.7132     0.7031
A_1     C     0.1379     0.726     0.0701
A_1     C     0.4319     0.8763     0.1964
A_2     C     0.8844     0.2113     0.1982
A_0     C     0.454     0.3573     0.2849
A_3     C     0.8193     0.935     0.3097
A_3     C     0.5621     0.2686     0.9181
A_3     C     0.1404     0.55     0.782
A_3     C     0.1139     0.9601     0.7831
A_2     C     0.7635     0.3376     0.5482
A_3     C     0.3335     0.0011     0.3273
A_2     C     0.8941     0.9693     0.261
A_1     C     0.4905     0.8667     0.1072
A_2     C     0.6418     0.855     0.3809
A_1     C     0.7678     0.3001     0.8798
A_0     C     0.804     0.3562     0.2831
A_3     C     0.2133     0.3629     0.9428
A_0     C     0.3795     0.8858     0.8485
A_3     C     0.7405     0.8249     0.3702
A_3     C     0.741     0.2197     0.0388
A_0     C     0.8516     0.3499     0.7339
A_2     C     0.7817     0.5244     0.0585
A_2     C     0.1013     0.3198     0.3688
A_1     C     0.7771     0.8401     0.9112
A_2     C     0.409     0.3483     0.7712
A_3     C     0.9054     0.2272     0.5762
A_0     C     0.0867     0.4436     0.1494
A_0     C     0.0845     0.1997     0.7739
A_0     C     0.5068     0.7628     0.0844
A_2     C     0.616     0.9429     0.0021
A_1     C     0.2048     0.2798     0.28
A_0     C     0.286     0.7247     0.6649
A_2     C     0.0905     0.9655     0.8859
A_1     C     0.0369     0.7035     0.7623
A_0     C     0.8009     0.1165     0.7234
A_2     C     0.6549     0.1434     0.2446
A_0     C     0.7259     0.5334     0.2296
A_2     C     0.8924     0.5849     0.9266
A_0     C     0.5462     0.3352     0.1711
A_0     C     0.7636     0.6355     0.1357
A_3     C     0.0388     0.9991     0.0368
A_0     C     0.6062     0.4917     0.1048
A_1     C     0.6819     0.4432     0.6549
A_0     C     0.7721     0.6644     0.6084
A_0     C     0.1538     0.5071     0.6536
A_3     C     0.8594     0.3684     0.6858
A_2     C     0.0548     0.8099     0.6722
A_3     C     0.8714     0.8189     0.7349
A_1     C     0.623     0.9796     0.538
A_3     C     0.5779     0.1954     0.6422
A_3     C     0.2406     0.6666     0.3744
A_3     C     0.7476     0.9201     0.8553
A_2     C     0.0161     0.7895     0.7103
A_0     C     0.0914     0.6159     0.0144
A_3     C     0.0561     0.3152     0.1941
A_1     C     0.9348     0.25     0.7337
A_0     C     0.9561     0.0775     0.7111
A_3     C     0.5305     0.7614     0.8395
A_1     C     0.1049     0.1237     0.7116
A_0     C     0.4324     0.0138     0.1647
A_1     C     0.6184     0.5058     0.9258
A_0     C     0.6984     0.9981     0.2795
A_3     C     0.5029     0.0332     0.1161
A_0     C     0.6364     0.467     0.6263
A_2     C     0.295     0.9344     0.4442
A_1     C     0.4808     0.6865     0.646
A_3     C     0.7648     0.0708     0.5146
A_1     C     0.8648     0.4234     0.1068
A_3     C     0.5627     0.0256     0.2406
A_3     C     0.6876     0.6364     0.2656
A_1     C     0.3298     0.0394     0.607
A_1     C     0.4205     0.7843     0.2958
A_1     C     0.5315     0.5854     0.6784
A_0     C     0.2392     0.7773     0.6039
A_1     C     0.3435     0.4179     0.3868
A_1     C     0.0114     0.6322     0.9485
A_0     C     0.4826     0.7936     0.4658
A_0     C     0.1485     0.6645     0.0491
A_1     C     0.3079     0.1182     0.247
A_0     C     0.934     0.1363     0.6456
A_0     C     0.1009     0.2998     0.5057
A_3     C     0.1293     0.5444     0.1277
A_0     C     0.746     0.5926     0.5877
A_3     C     0.1577     0.0204     0.7056
A_1     C     0.0219     0.0974     0.2005
A_1     C     0.3831     0.6007     0.8491
A_1     C     0.6142     0.3675     0.1269
A_2     C     0.7465     0.7717     0.9246
A_3     C     0.061     0.1715     0.3948
A_3     C     0.2698     0.0078     0.7959
A_2     C     0.7106     0.3145     0.3139
A_3     C     0.5274     0.5566     0.2548
A_2     C     0.1738     0.3552     0.9573
A_2     C     0.124     0.303     0.1002
A_0     C     0.0974     0.1729     0.0596
A_3     C     0.1656     0.8523     0.3578
A_0     C     0.2853     0.7468     0.8515
A_0     C     0.4254     0.2447     0.1085
A_2     C     0.5274     0.3988     0.0204
A_2     C     0.3933     0.9631     0.2865
A_0     C     0.9788     0.5912     0.3786
A_0     C     0.7557     0.0266     0.2103
A_1     C     0.4894     0.5573     0.8029
A_2     C     0.7019     0.8406     0.45
A_0     C     0.0359     0.6786     0.5106
A_3     C     0.024     0.1194     0.2565
A_2     C     0.9548     0.9675     0.2607
A_1     C     0.206     0.818     0.0604
A_1     C     0.5501     0.3188     0.0383
A_2     C     0.181     0.8684     0.4375
A_3     C     0.8986     0.8306     0.2718
A_0     C     0.6807     0.1085     0.2663
A_3     C     0.3281     0.3805     0.5186
A_3     C     0.2382     0.677     0.8492
A_0     C     0.3203     0.3527     0.8858
A_3     C     0.3186     0.2358     0.2096
A_1     C     0.3598     0.8547     0.9582
A_0     C     0.5322     0.7195     0.0323
A_2     C     0.9248     0.783     0.3327
A_2     C     0.7528     0.9886     0.4279
A_2     C     0.6563     0.3535     0.7961
A_3     C     0.932     0.0617     0.0514
A_3     C     0.3521     0.5944     0.8848
A_3     C     0.338     0.9064     0.3899
A_1     C     0.1783     0.1527     0.3931
A_1     C     0.962     0.5604     0.7929
A_1     C     0.5444     0.945     0.0936
A_0     C     0.6445     0.2245     0.1378
A_1     C     0.05     0.565     0.8251
A_1     C     0.1554     0.0633     0.8925
A_2     C     0.4381     0.5115     0.1634
A_1     C     0.2706     0.1966     0.9988
A_3     C     0.3163     0.2193     0.2473
A_0     C     0.1792     0.5801     0.2629
A_3     C     0.0986     0.8655     0.3228
A_1     C     0.6828     0.3182     0.6425
A_3     C     0.0485     0.6795     0.4764
A_2     C     0.4645     0.4943     0.2753
A_3     C     0.5965     0.1558     0.1562
A_0     C     0.4605     0.9036     0.7618
A_0     C     0.7504     0.656     0.1948
A_3     C     0.4707     0.108     0.1918
A_2     C     0.2967     0.7577     0.1016
A_3     C     0.6501     0.182     0.3722
A_0     C     0.7721     0.0799     0.6621
A_1     C     0.0829     0.8009     0.53
A_3     C     0.8611     0.767     0.5916
A_1     C     0.9012     0.9667     0.8791
A_1     C     0.5758     0.0506     0.4088
A_1     C     0.4082     0.4829     0.9879
A_1     C     0.476     0.9435     0.7754
A_0     C     0.5594     0.2081     0.1566
A_1     C     0.7424     0.0146     0.2517
A_2     C     0.8326     0.0495     0.8598
A_1     C     0.8988     0.8743     0.9087
A_3     C     0.8541     0.5256     0.1952
A_3     C     0.4881     0.5959     0.7565
A_0     C     0.6932     0.2442     0.5613
A_2     C     0.7463     0.8636     0.9782
A_3     C     0.9982     0.6044     0.2075
A_0     C     0.0421     0.579     0.2726
A_0     C     0.6332     0.1716     0.3309
A_3     C     0.3976     0.1048     0.1597
A_2     C     0.6442     0.9603     0.6489
A_0     C     0.8002     0.2991     0.4135
A_1     C     0.7464     0.7788     0.6001
A_3     C     0.5243     0.1809     0.5022
A_2     C     0.6399     0.1011     0.0036
A_2     C     0.4759     0.1699     0.5989
A_3     C     0.1925     0.7498     0.7934
A_3     C     0.6879     0.1905     0.4789
A_2     C     0.6382     0.2636     0.7535
A_1     C     0.4831     0.4653     0.3725
A_2     C     0.4923     0.5002     0.1395
A_2     C     0.7153     0.734     0.1711
A_3     C     0.5795     0.5758     0.2284
A_3     C     0.1238     0.325     0.8334
A_3     C     0.6326     0.3347     0.147
A_0     C     0.5725     0.1602     0.6083
A_2     C     0.6186     0.8278     0.8053
A_3     C     0.1741     0.7246     0.3248
A_0     C     0.8511     0.61     0.3243
A_2     C     0.8916     0.3785     0.234
A_3     C     0.1057     0.488     0.6749
A_1     C     0.3838     0.9767     0.7173
A_3     C     0.498     0.8285     0.8725
A_3     C     0.1865     0.5445     0.5197
A_3     C     0.2195     0.7889     0.7184
A_3     C     0.3359     0.9521     0.1013
A_1     C     0.6431     0.0862     0.8037
A_3     C     0.9205     0.3393     0.524
A_1     C     0.0968     0.8215     0.9256
A_3     C     0.7949     0.9792     0.623
A_2     C     0.7047     0.1215     0.0086
A_1     C     0.9283     0.6833     0.2367
A_2     C     0.0859     0.6731     0.1712
A_3     C     0.3615     0.3978     0.9152
A_0     C     0.3142     0.0736     0.8953
A_3     C     0.4873     0.7948     0.7731
A_2     C     0.7105     0.1011     0.0057
A_1     C     0.2178     0.1443     0.0736
A_2     C     0.8815     0.7416     0.8104
A_3     C     0.9319     0.4172     0.3574
A_3     C     0.9562     0.086     0.1416
A_2     C     0.9434     0.8702     0.1204
A_1     C     0.7521     0.0128     0.2273
A_0     C     0.0138     0.0352     0.9869
A_3     C     0.4189     0.3245     0.3784
A_2     C     0.5299     0.5342     0.3752
A_0     C     0.1447     0.8504     0.9646
A_3     C     0.6799     0.0858     0.495
A_3     C     0.6901     0.6025     0.4862
A_3     C     0.1238     0.2993     0.7774
A_2     C     0.2808     0.0789     0.4238
A_3     C     0.2949     0.8701     0.8717
A_2     C     0.3193     0.9455     0.0132
A_3     C     0.8301     0.3994     0.9874
A_1     C     0.8667     0.5926     0.8597
A_1     C     0.7156     0.7053     0.4511
A_2     C     0.0237     0.1533     0.0858
A_2     C     0.0493     0.8283     0.5786
A_3     C     0.7715     0.4466     0.1875
A_3     C     0.2209     0.2038     0.1729
A_1     C     0.7129     0.3258     0.6425
A_1     C     0.4945     0.0119     0.2994
A_2     C     0.359     0.7607     0.4254
A_1     C     0.1979     0.9266     0.5591
A_2     C     0.7287     0.9159     0.3606
A_2     C     0.1438     0.4211     0.3762
A_2     C     0.4093     0.7885     0.8454
A_2     C     0.06     0.0314     0.1861
A_2     C     0.6306     0.5749     0.9347
A_2     C     0.4514     0.81     0.3961
A_2     C     0.5099     0.7162     0.8286
A_0     C     0.8862     0.8375     0.2553
A_3     C     0.0146     0.9771     0.9932
A_3     C     0.0801     0.4759     0.3547
A_0     C     0.8346     0.7547     0.5548
A_0     C     0.1717     0.4219     0.4091
A_0     C     0.9212     0.0182     0.4483
A_3     C     0.4653     0.7336     0.0748
A_2     C     0.8723     0.4205     0.014
A_1     C     0.6823     0.8996     0.9635
A_0     C     0.7879     0.0823     0.5669
A_2     C     0.1878     0.9328     0.7792
A_2     C     0.4966     0.826     0.5766
A_3     C     0.7716     0.109     0.7411
A_3     C     0.4813     0.4747     0.1327
A_0     C     0.7154     0.431     0.5061
A_3     C     0.6736     0.4007     0.9237
A_2     C     0.5255     0.9396     0.5412
A_1     C     0.4502     0.5464     0.4397
A_2     C     0.5239     0.1902     0.132
A_0     C     0.7455     0.5247     0.2424
A_1     C     0.1478     0.6445     0.537
A_2     C     0.8404     0.8864     0.9255
A_3     C     0.8722     0.1934     0.492
A_2     C     0.8356     0.5568     0.7797
A_3     C     0.4204     0.6528     0.9488
A_0     C     0.2211     0.2161     0.1286
A_0     C     0.6504     0.7578     0.3952
A_3     C     0.7251     0.5359     0.1999
A_2     C     0.8237     0.768     0.3876
A_3     C     0.5102     0.2621     0.1253
A_0     C     0.9653     0.4402     0.0123
A_2     C     0.8063     0.8781     0.4967
A_3     C     0.0204     0.6013     0.2165
A_0     C     0.1234     0.4636     0.1199
A_3     C     0.2911     0.3196     0.611
A_2     C     0.1308     0.7644     0.1711
A_3     C     0.7016     0.9386     0.2161
A_0     C     0.5489     0.706     0.7356
A_1     C     0.1635     0.589     0.0775
A_1     C     0.3833     0.2416     0.8632
A_3     C     0.7599     0.8258     0.1926
A_0     C     0.7555     0.3138     0.6407
A_0     C     0.7084     0.3951     0.4051
A_2     C     0.6813     0.9649     0.8811
A_0     C     0.4128     0.2503     0.6153
A_0     C     0.7427     0.7988     0.9726
A_3     C     0.7577     0.0503     0.7524
A_3     C     0.4387     0.0839     0.6462
A_2     C     0.2376     0.3791     0.5379
A_1     C     0.2598     0.9022     0.2453
A_1     C     0.8881     0.2562     0.83
A_2     C     0.2089     0.0559     0.5667
A_2     C     0.6263     0.3117     0.3512
A_0     C     0.8537     0.5422     0.0215
A_1     C     0.4059     0.2464     0.1293
A_1     C     0.1035     0.3274     0.7952
A_2     C     0.9546     0.6724     0.7416
A_3     C     0.2439     0.0665     0.529
A_2     C     0.3507     0.4043     0.6548
A_3     C     0.219     0.719     0.8343
A_2     C     0.7061     0.8657     0.2648
A_2     C     0.4417     0.4483     0.824
A_2     C     0.3354     0.175     0.8807
A_3     C     0.5746     0.2998     0.7914
A_2     C     0.2029     0.0102     0.4761
A_1     C     0.402     0.9097     0.5911
A_2     C     0.4804     0.0735     0.4703
A_3     C     0.6311     0.2427     0.2319
A_1     C     0.207     0.3107     0.1039
A_0     C     0.3613     0.9796     0.4027
A_3     C     0.0274     0.0186     0.7165
A_0     C     0.0112     0.1188     0.9416
A_1     C     0.6141     0.6671     0.4062
A_3     C     0.5736     0.3193     0.1816
A_1     C     0.8966     0.0515     0.4581
A_0     C     0.3482     0.7401     0.9443
A_2     C     0.4223     0.9394     0.368
A_3     C     0.8624     0.3284     0.2862
A_3     C     0.0996     0.5263     0.599
A_1     C     0.4934     0.703     0.5043
A_3     C     0.9828     0.4751     0.5224
A_3     C     0.8095     0.4542     0.2203
A_2     C     0.109     0.374     0.966
A_0     C     0.957     0.1162     0.3243
A_3     C     0.8479     0.07     0.6027
A_2     C     0.0412     0.3168     0.7148
A_1     C     0.6494     0.4987     0.1667
A_1     C     0.5797     0.9289     0.7422
A_1     C     0.0372     0.2075     0.7732
A_2     C     0.127     0.3194     0.7023
A_1     C     0.2546     0.5797     0.2044
A_0     C     0.7516     0.552     0.4643
A_2     C     0.5044     0.1933     0.9304
A_2     C     0.4084     0.0211     0.3762
A_3     C     0.7634     0.7555     0.7503
A_1     C     0.4123     0.6183     0.208
A_2     C     0.4865     0.5027     0.7751
A_2     C     0.4618     0.4049     0.526
A_2     C     0.1327     0.9394     0.6075
A_3     C     0.5281     0.7364     0.1263
A_0     C     0.2958     0.9492     0.2703
A_0     C     0.8981     0.7099     0.4018
A_0     C     0.9618     0.3681     0.5942
A_2     C     0.5144     0.3818     0.4315
A_1     C     0.4846     0.741     0.0334
A_1     C     0.3156     0.8268     0.7189
A_0     C     0.9909     0.7213     0.1969
A_0     C     0.8515     0.0082     0.329
A_0     C     0.6415     0.7856     0.6953
A_3     C     0.9448     0.4619     0.5804
A_0     C     0.1228     0.7978     0.4863
A_1     C     0.1257     0.2872     0.8074
A_1     C     0.7654     0.481     0.6765
A_2     C     0.3224     0.5668     0.4754
A_3     C     0.1997     0.2302     0.9834
A_2     C     0.3961     0.5972     0.3385
A_2     C     0.3598     0.2144     0.8023
A_3     C     0.9199     0.8791     0.3677
A_1     C     0.2091     0.0946     0.4264
A_1     C     0.8976     0.9937     0.5706
A_2     C     0.7089     0.0583     0.5091
A_1     C     0.9059     0.9588     0.1837
A_3     C     0.9212     0.0908     0.3162
A_3     C     0.6921     0.9418     0.8463
A_1     C     0.8959     0.3757     0.3297
A_3     C     0.9144     0.9537     0.1679
A_2     C     0.047     0.358     0.8077
A_2     C     0.7036     0.1552     0.6533
A_2     C     0.2912     0.7716     0.3416
A_1     C     0.7228     0.2413     0.9797
A_0     C     0.8351     0.8914     0.5821
A_2     C     0.9793     0.3754     0.8154
A_1     C     0.5237     0.105     0.7424
A_3     C     0.1334     0.2893     0.6516
A_1     C     0.4882     0.0283     0.2087
A_3     C     0.9718     0.2543     0.4647
A_1     C     0.5841     0.9893     0.1945
A_1     C     0.0819     0.6826     0.9987
A_0     C     0.5949     0.6528     0.4519
A_2     C     0.9848     0.9995     0.6634
A_3     C     0.8704     0.7611     0.6317
A_0     C     0.6749     0.8619     0.9397
A_3     C     0.9002     0.4752     0.0182
A_3     C     0.1869     0.9043     0.8332
A_3     C     0.2072     0.4708     0.1711
A_1     C     0.7385     0.1778     0.6812
A_3     C     0.9323     0.7087     0.0941
A_1     C     0.3993     0.7573     0.4166
A_1     C     0.9951     0.153     0.6976
A_2     C     0.1846     0.5223     0.7721
A_3     C     0.5267     0.1301     0.7827
A_0     C     0.3086     0.5096     0.0095
A_2     C     0.0365     0.2779     0.6157
A_0     C     0.1275     0.1013     0.2105
A_0     C     0.2746     0.1621     0.4422
A_3     C     0.8808     0.4003     0.4598
A_0     C     0.674     0.7265     0.4309
A_2     C     0.4924     0.9402     0.7299
A_3     C     0.1493     0.1414     0.2436
A_1     C     0.3166     0.4843     0.1177
A_3     C     0.4669     0.8255     0.5134
A_3     C     0.1656     0.289     0.929
A_3     C     0.1659     0.4516     0.5349
A_2     C     0.2315     0.0132     0.4173
A_2     C     0.1464     0.5075     0.1063
A_1     C     0.1525     0.8019     0.9634
A_1     C     0.6617     0.9002     0.232
A_0     C     0.3204     0.1232     0.792
A_1     C     0.0889     0.9691     0.3949
A_0     C     0.5009     0.2238     0.2216
A_3     C     0.7208     0.6692     0.2824
A_1     C     0.3053     0.1281     0.6485
A_1     C     0.2693     0.1766     0.3095
A_1     C     0.2245     0.307     0.7211
A_0     C     0.7647     0.6169     0.4296
A_2     C     0.6708     0.3443     0.2324
A_1     C     0.1424     0.2582     0.6547
A_3     C     0.2466     0.5462     0.5331
A_1     C     0.9941     0.5065     0.4887
A_0     C     0.4937     0.9787     0.5542
A_0     C     0.8017     0.9678     0.4554
A_1     C     0.5054     0.9868     0.1902
A_0     C     0.4063     0.0701     0.0883
A_2     C     0.1416     0.0575     0.726
A_2     C     0.0217     0.9425     0.5466
A_0     C     0.7045     0.8084     0.0063
A_0     C     0.0546     0.5559     0.661
A_0     C     0.52     0.2973     0.9068
A_2     C     0.8049     0.9464     0.1785
A_2     C     0.6073     0.815     0.1622
A_0     C     0.115     0.8228     0.0884
A_1     C     0.0283     0.2493     0.9037
A_1     C     0.4438     0.0452     0.2332
A_0     C     0.8526     0.3605     0.311
A_0     C     0.1757     0.8266     0.7928
A_3     C     0.9444     0.0788     0.4951
A_3     C     0.9355     0.558     0.4927
A_2     C     0.2491     0.777     0.8698
A_0     C     0.4463     0.1642     0.101
A_0     C     0.4336     0.7385     0.164
A_3     C     0.3222     0.4346     0.0121
A_0     C     0.5528     0.5275     0.713
A_2     C     0.4174     0.158     0.0526
A_1     C     0.7031     0.6102     0.6444
A_3     C     0.6864     0.8937     0.9136
A_0     C     0.8087     0.5837     0.9046
A_3     C     0.4904     0.4313     0.6275
A_1     C     0.6442     0.7596     0.1267
A_0     C     0.6395     0.5198     0.3558
A_2     C     0.8345     0.2205     0.8054
A_1     C     0.6716     0.0115     0.6788
A_3     C     0.1627     0.3309     0.8703
A_2     C     0.0345     0.0063     0.7372
A_1     C     0.6329     0.7009     0.6205
A_3     C     0.2629     0.0424     0.1721
A_2     C     0.9739     0.6643     0.9767
A_2     C     0.8682     0.4246     0.5081
A_2     C     0.2542     0.6217     0.435
A_2     C     0.7726     0.8243     0.6942
A_3     C     0.618     0.8839     0.443
A_3     C     0.0629     0.4902     0.5349
A_1     C     0.3845     0.1304     0.4426
A_2     C     0.4637     0.165     0.5734
A_3     C     0.5467     0.4606     0.6157
A_2     C     0.8759     0.4191     0.2815
A_2     C     0.8792     0.7189     0.0711
A_1     C     0.6546     0.9667     0.299
A_2     C     0.2099     0.3472     0.4914
A_0     C     0.3763     0.8129     0.9528
A_3     C     0.5222     0.3764     0.3967
A_2     C     0.7428     0.2401     0.4768
A_1     C     0.3255     0.802     0.8815
A_0     C     0.2429     0.1182     0.5525
A_2     C     0.5252     0.6952     0.7294
A_0     C     0.5181     0.7011     0.5249
A_3     C     0.8897     0.5337     0.0055
A_2     C     0.511     0.5839     0.8644
A_2     C     0.3451     0.639     0.828
A_3     C     0.4577     0.5263     0.8262
A_1     C     0.5687     0.8596     0.7778
A_3     C     0.5792     0.9831     0.3041
A_1     C     0.4843     0.4053     0.4347
A_1     C     0.1332     0.9302     0.8438
A_1     C     0.114     0.5158     0.6575
A_1     C     0.8342     0.8795     0.8042
A_1     C     0.4223     0.0607     0.3805
A_1     C     0.9025     0.186     0.2923
A_0     C     0.4554     0.6558     0.6292
A_3     C     0.8308     0.3211     0.9725
A_0     C     0.9774     0.6488     0.9642
A_0     C     0.8283     0.1803     0.863
A_0     C     0.5996     0.4809     0.7978
A_0     C     0.5815     0.6434     0.3465
A_2     C     0.257     0.3236     0.5432
A_3     C     0.3311     0.0632     0.8185
A_1     C     0.4544     0.9837     0.9329
A_2     C     0.5829     0.9879     0.8534
A_3     C     0.5774     0.4916     0.8169
A_3     C     0.4068     0.2509     0.4685
A_3     C     0.433     0.4705     0.7961
A_0     C     0.5046     0.9783     0.0257
A_0     C     0.4194     0.7134     0.7207
A_0     C     0.514     0.5514     0.2867
A_2     C     0.273     0.174     0.4199
A_3     C     0.3872     0.108     0.5179
A_3     C     0.8229     0.2039     0.0859
A_0     C     0.9773     0.1435     0.2749
A_1     C     0.8368     0.9195     0.336
A_2     C     0.5176     0.8845     0.0797
A_0     C     0.1736     0.0309     0.6526
A_3     C     0.6335     0.268     0.8235
A_1     C     0.1113     0.5299     0.3502
A_3     C     0.3456     0.3065     0.1619
A_0     C     0.1523     0.5367     0.6675
A_2     C     0.1812     0.5587     0.3887
A_1     C     0.7823     0.2182     0.3819
A_3     C     0.1839     0.2882     0.261
A_0     C     0.5446     0.3518     0.6008
A_3     C     0.3336     0.6046     0.1488
A_2     C     0.463     0.5879     0.2816
A_1     C     0.1415     0.4456     0.2403
A_1     C     0.2657     0.9306     0.745
A_2     C     0.7108     0.3523     0.6882
A_2     C     0.2293     0.704     0.5468
A_1     C     0.2982     0.0167     0.5162
A_1     C     0.4702     0.2071     0.4622
A_1     C     0.5015     0.1264     0.6279
A_2     C     0.3234     0.4158     0.8009
A_3     C     0.972     0.7745     0.2077
A_0     C     0.1923     0.3459     0.5459
A_2     C     0.4606     0.0312     0.1804
A_2     C     0.4164     0.1221     0.7565
A_3     C     0.228     0.6207     0.5141
A_0     C     0.3797     0.6627     0.1691
A_1     C     0.085     0.52     0.0144
A_1     C     0.3789     0.3367     0.11
A_1     C     0.7951     0.905     0.9972
A_2     C     0.6402     0.1648     0.0872
A_1     C     0.943     0.5421     0.3957
A_2     C     0.2856     0.7188     0.6731
A_0     C     0.0041     0.2811     0.7735
A_0     C     0.5484     0.4532     0.6455
A_2     C     0.2178     0.4584     0.9935
A_3     C     0.374     0.1826     0.6199
A_1     C     0.047     0.417     0.14
A_1     C     0.1132     0.9721     0.5161
A_2     C     0.8852     0.6573     0.3242
A_1     C     0.5036     0.6578     0.9027
A_3     C     0.366     0.0308     0.6201
A_2     C     0.5962     0.7783     0.4081
A_3     C     0.0008     0.1406     0.3776
A_2     C     0.562     0.9662     0.5129
A_3     C     0.4397     0.4385     0.5438
A_0     C     0.2229     0.9124     0.1184
A_3     C     0.7328     0.1145     0.7886
A_0     C     0.5048     0.766     0.0381
A_3     C     0.489     0.7768     0.5141
A_2     C     0.9042     0.4913     0.5688
A_1     C     0.4017     0.8396     0.5424
A_2     C     0.8441     0.8118     0.171
A_0     C     0.0416     0.1358     0.1704
A_3     C     0.0804     0.5017     0.1513
A_0     C     0.1025     0.5242     0.3272
A_3     C     0.9035     0.8614     0.0826
A_0     C     0.4527     0.1916     0.5203
A_2     C     0.9207     0.0194     0.3198
A_0     C     0.1027     0.8936     0.1322
A_0     C     0.8625     0.8452     0.4392
A_3     C     0.9588     0.0466     0.7596
A_3     C     0.6743     0.2393     0.2167
A_2     C     0.2318     0.8071     0.9405
A_3     C     0.4195     0.8881     0.3947
A_0     C     0.559     0.8815     0.6605
A_2     C     0.2432     0.4404     0.4123
A_1     C     0.7074     0.605     0.6454
A_1     C     0.7473     0.3607     0.498
A_3     C     0.8159     0.4992     0.2335
A_3     C     0.5991     0.4871     0.8401
A_1     C     0.0994     0.5238     0.8502
A_3     C     0.5295     0.8594     0.3067
A_1     C     0.3121     0.2781     0.6336
A_1     C     0.0572     0.9321     0.2671
A_3     C     0.9612     0.1033     0.713
A_1     C     0.1696     0.0916     0.7362
A_3     C     0.1774     0.5766     0.7484
A_0     C     0.8358     0.7001     0.1718
A_0     C     0.071     0.7617     0.6977
A_3     C     0.4248     0.8071     0.8535
A_2     C     0.7255     0.9922     0.429
A_3     C     0.9688     0.8874     0.5886
A_1     C     0.782     0.9349     0.001
A_1     C     0.0792     0.5827     0.1237
A_3     C     0.6211     0.0259     0.8957
A_2     C     0.0574     0.7466     0.3718
A_0     C     0.5957     0.0146     0.2528
A_1     C     0.3962     0.4796     0.2981
A_0     C     0.1722     0.246     0.4738
A_1     C     0.1983     0.6683     0.5633
A_3     C     0.1267     0.5784     0.255
A_0     C     0.8128     0.0929     0.1683
A_2     C     0.4189     0.591     0.107
A_0     C     0.0942     0.9479     0.3123
A_1     C     0.316     0.3609     0.0617
A_1     C     0.0081     0.9354     0.8793
A_2     C     0.3107     0.6438     0.8113
A_0     C     0.2942     0.2794     0.2591
A_0     C     0.3075     0.0658     0.5467
A_3     C     0.3505     0.6059     0.2537
A_2     C     0.5884     0.7463     0.2072
A_1     C     0.6789     0.2778     0.6249
A_2     C     0.7219     0.3996     0.4891
A_2     C     0.3585     0.7909     0.1964
A_2     C     0.5138     0.979     0.1976
A_0     C     0.7204     0.6755     0.8821
A_2     C     0.2254     0.9061     0.4218
A_0     C     0.0352     0.9259     0.4252
A_2     C     0.8858     0.1778     0.97
A_3     C     0.077     0.2229     0.7255
A_1     C     0.0769     0.3012     0.4819
A_1     C     0.3393     0.2117     0.2576
A_3     C     0.9727     0.239     0.3507
A_1     C     0.5375     0.4535     0.9132
A_3     C     0.7911     0.717     0.1198
A_3     C     0.1748     0.3853     0.2438
A_2     C     0.3002     0.1037     0.2669
A_0     C     0.1357     0.241     0.3855
A_2     C     0.7744     0.7651     0.2455
A_0     C     0.155     0.6422     0.2875
A_1     C     0.8352     0.9694     0.4418
A_1     C     0.2611     0.5383     0.294
A_1     C     0.8776     0.0629     0.5452
A_2     C     0.4069     0.1204     0.1729
A_1     C     0.0871     0.9069     0.6262
A_2     C     0.5332     0.6154     0.3449
A_1     C     0.3791     0.5784     0.8326
A_3     C     0.078     0.819     0.9986
A_0     C     0.7452     0.5958     0.5664
A_0     C     0.8318     0.2446     0.1098
A_1     C     0.9128     0.3898     0.1543
A_3     C     0.7938     0.2403     0.1857
A_3     C     0.1053     0.8948     0.5985
A_3     C     0.7719     0.1627     0.0379
A_1     C     0.5527     0.3624     0.6073
A_1     C     0.5861     0.2753     0.7633
A_0     C     0.9256     0.5305     0.2317
A_1     C     0.2777     0.4235     0.7878
A_3     C     0.0969     0.7769     0.7644
A_0     C     0.1743     0.2552     0.1243
A_2     C     0.8217     0.3135     0.1755
A_2     C     0.9013     0.131     0.7991
A_2     C     0.6735     0.6526     0.9892
A_1     C     0.4182     0.8571     0.7563
A_2     C     0.4629     0.9659     0.9824
A_3     C     0.085     0.961     0.3197
A_3     C     0.1592     0.151     0.9987
A_2     C     0.03     0.4116     0.2401
A_0     C     0.2344     0.3393     0.4738
A_0     C     0.4064     0.5763     0.9966
A_1     C     0.5352     0.8929     0.6431
A_0     C     0.1008     0.6698     0.2054
A_3     C     0.5954     0.7509     0.9751
A_2     C     0.8084     0.5719     0.6068
A_1     C     0.8503     0.6974     0.9572
A_3     C     0.9613     0.3945     0.0478
A_2     C     0.2599     0.5457     0.3343
A_2     C     0.5051     0.6197     0.0075
A_1     C     0.3771     0.9072     0.631
A_1     C     0.9214     0.3554     0.9585
A_3     C     0.6632     0.1704     0.0023
A_2     C     0.3553     0.5458     0.5078
A_0     C     0.8863     0.4073     0.5094
A_3     C     0.445     0.2211     0.7966
A_1     C     0.8861     0.3358     0.4748
A_1     C     0.4821     0.8149     0.7252
A_2     C     0.9356     0.4601     0.8396
A_0     C     0.2303     0.3669     0.3977
A_1     C     0.2057     0.2426     0.5298
A_1     C     0.8938     0.926     0.2001
A_2     C     0.8296     0.5965     0.4305
A_2     C     0.9984     0.3007     0.694
A_3     C     0.642     0.3424     0.7259
A_2     C     0.6822     0.9558     0.3209
A_3     C     0.0546     0.9177     0.9988
A_3     C     0.7206     0.5804     0.324
A_3     C     0.7453     0.4431     0.4147
A_0     C     0.5544     0.4325     0.5385
A_2     C     0.1615     0.0623     0.6007
A_3     C     0.6801     0.3657     0.9415
A_2     C     0.8647     0.3746     0.7383
A_3     C     0.6333     0.5684     0.3058
A_3     C     0.1983     0.9764     0.7442
A_2     C     0.9307     0.4922     0.685
A_0     C     0.7794     0.0727     0.0655
A_1     C     0.4979     0.7297     0.4967
A_0     C     0.4524     0.7791     0.7795
A_3     C     0.4246     0.8899     0.9531
A_1     C     0.769     0.8745     0.2513
A_3     C     0.9979     0.623     0.9629
A_0     C     0.8043     0.1626     0.4143
A_0     C     0.7198     0.093     0.3089
A_0     C     0.2246     0.7148     0.386
A_1     C     0.1619     0.1301     0.7994
A_1     C     0.2194     0.321     0.1867
A_1     C     0.0662     0.2203     0.3494
A_0     C     0.8234     0.768     0.7932
A_0     C     0.0499     0.9326     0.7552
A_0     C     0.6597     0.9397     0.2755
A_2     C     0.3044     0.7107     0.4439
A_2     C     0.0084     0.309     0.663
A_3     C     0.7314     0.1999     0.8166
A_2     C     0.0358     0.627     0.1663
A_3     C     0.3324     0.0119     0.3379
A_1     C     0.204     0.3093     0.0071
A_0     C     0.728     0.805     0.3976
A_0     C     0.4432     0.4615     0.9228
A_0     C     0.0083     0.7503     0.0991
A_3     C     0.0427     0.3239     0.0299
A_0     C     0.6602     0.0037     0.2539
A_1     C     0.9565     0.2943     0.7943
A_2     C     0.7045     0.3863     0.6233
A_2     C     0.4768     0.2954     0.5642
A_0     C     0.9637     0.6172     0.7071
A_2     C     0.697     0.6775     0.881
A_2     C     0.8899     0.3778     0.371
A_3     C     0.8151     0.6474     0.889
A_3     C     0.2821     0.5637     0.2834
A_1     C     0.2807     0.6822     0.9314
A_3     C     0.0607     0.9205     0.9348
A_0     C     0.0824     0.9825     0.8109
A_1     C     0.3784     0.3186     0.062
A_3     C     0.6048     0.2817     0.7398
A_2     C     0.3147     0.4174     0.3995
A_2     C     0.4353     0.4687     0.7067
A_0     C     0.6421     0.8688     0.6603
A_3     C     0.1964     0.3677     0.8314
A_1     C     0.113     0.8236     0.1845
A_2     C     0.2571     0.6479     0.8387
A_0     C     0.4649     0.741     0.1196
A_1     C     0.1979     0.1798     0.1179
A_2     C     0.6419     0.2707     0.6565
A_1     C     0.4434     0.1631     0.4666
A_3     C     0.6911     0.6071     0.3539
A_1     C     0.3226     0.6743     0.7619
A_2     C     0.0308     0.4719     0.575
A_3     C     0.0287     0.6431     0.4593
A_0     C     0.2597     0.6972     0.7901
A_0     C     0.0151     0.9603     0.4716
A_1     C     0.0228     0.7668     0.4279
A_3     C     0.8286     0.5102     0.9544
A_2     C     0.6029     0.9729     0.3942
A_0     C     0.3443     0.8847     0.0591
A_1     C     0.8501     0.0307     0.9325
A_0     C     0.0737     0.0013     0.3328
A_3     C     0.6875     0.9417     0.1798
A_3     C     0.2262     0.7081     0.8514
A_2     C     0.2217     0.0219     0.797
A_1     C     0.5976     0.4325     0.0944
A_3     C     0.2406     0.9417     0.8385
A_1     C     0.2306     0.726     0.6732
A_0     C     0.2254     0.0297     0.541
A_1     C     0.4875     0.7757     0.7599
A_2     C     0.2776     0.0904     0.9214
A_1     C     0.0304     0.8953     0.9852
A_0     C     0.8656     0.7784     0.199
A_3     C     0.2533     0.6697     0.6529
A_3     C     0.9384     0.2698     0.1765
A_1     C     0.1286     0.957     0.9162
A_0     C     0.6303     0.2747     0.9788
A_0     C     0.6266     0.8541     0.474
A_3     C     0.6986     0.7058     0.2291
A_3     C     0.9151     0.0744     0.1533
A_0     C     0.2899     0.344     0.9837
A_3     C     0.8191     0.0253     0.8363
A_0     C     0.431     0.6846     0.8454
A_1     C     0.8916     0.9852     0.3382
A_3     C     0.9851     0.4466     0.6177
A_2     C     0.9171     0.0862     0.8979
A_3     C     0.4741     0.273     0.3418
A_2     C     0.3991     0.1315     0.5192
A_3     C     0.9104     0.3295     0.3413
A_3     C     0.9305     0.6132     0.1122
A_2     C     0.8849     0.253     0.6126
A_0     C     0.0484     0.2011     0.5325
A_1     C     0.8653     0.7233     0.3751
A_2     C     0.3497     0.0829     0.3579
A_0     C     0.9712     0.4799     0.0597
A_3     C     0.8263     0.9032     0.687
A_2     C     0.6786     0.3863     0.892
A_0     C     0.4342     0.3729     0.4829
A_3     C     0.8393     0.4709     0.21
A_1     C     0.229     0.513     0.7873
A_0     C     0.5272     0.9094     0.1028
A_0     C     0.1262     0.8643     0.9462
A_0     C     0.7574     0.6005     0.1385
A_0     C     0.5845     0.4822     0.3685
A_2     C     0.062     0.4925     0.531
A_0     C     0.4303     0.8304     0.2115
A_1     C     0.3747     0.4071     0.0085
A_1     C     0.9532     0.4779     0.8013
A_2     C     0.7684     0.7397     0.4822
A_2     C     0.4078     0.7381     0.3055
A_1     C     0.0757     0.1332     0.9713
A_3     C     0.3337     0.8759     0.2634
A_0     C     0.2323     0.5869     0.5157
A_3     C     0.1515     0.5038     0.0322
A_1     C     0.3008     0.8276     0.2931
A_0     C     0.1121     0.2922     0.2886
A_0     C     0.2859     0.1812     0.688
A_2     C     0.2818     0.8869     0.6823
A_2     C     0.9625     0.9394     0.2672
A_3     C     0.9404     0.4884     0.703
A_3     C     0.31     0.1057     0.2713
A_1     C     0.8982     0.1513     0.34
A_1     C     0.851     0.8633     0.52
A_1     C     0.1309     0.213     0.8203
A_2     C     0.4513     0.9646     0.6108
A_1     C     0.6606     0.5227     0.0804
A_3     C     0.27     0.3548     0.0384
A_2     C     0.1879     0.3235     0.6216
A_3     C     0.1586     0.4754     0.6523
A_2     C     0.7243     0.3223     0.7614
A_0     C     0.9804     0.7494     0.3056
A_3     C     0.7288     0.8437     0.9717
A_3     C     0.9585     0.6717     0.2421
A_1     C     0.384     0.8986     0.6186
A_3     C     0.0456     0.7346     0.9126
A_3     C     0.3343     0.5611     0.5929
