MAT-31

loop_
_symmetry_equiv_pos_as_xyz
  x,y,z
_cell_length_a          28.6236
_cell_length_b          30.2988
_cell_length_c          37.9236
_cell_angle_alpha       90.0000
_cell_angle_beta        90.0000
_cell_angle_gamma       90.0000
loop_
_atom_site_label
_atom_site_type_symbol
_atom_site_fract_x
_atom_site_fract_y
_atom_site_fract_z
A_3     C     0.4932     0.3785     0.1017
A_1     C     0.351     0.6552     0.8788
A_3     C     0.5972     0.8702     0.3032
A_1     C     0.4401     0.7899     0.1007
A_3     C     0.6848     0.5061     0.7601
A_0     C     0.3703     0.8326     0.621
A_1     C     0.1456     0.4202     0.9711
A_1     C     0.7642     0.9507     0.0576
A_0     C     0.7881     0.6869     0.3008
A_2     C     0.1976     0.811     0.6984
A_3     C     0.4296     0.5498     0.5869
A_3     C     0.547     0.6111     0.4972
A_2     C     0.4089     0.1602     0.6795
A_1     C     0.6441     0.7594     0.0861
A_1     C     0.4144     0.6524     0.5707
A_3     C     0.8747     0.6823     0.1307
A_3     C     0.6465     0.6398     0.8066
A_2     C     0.658     0.9425     0.1212
A_1     C     0.5253     0.2974     0.8187
A_1     C     0.7151     0.3182     0.96
A_2     C     0.0372     0.4419     0.7275
A_3     C     0.7467     0.6529     0.6894
A_0     C     0.3742     0.7487     0.1948
A_2     C     0.1163     0.8093     0.9289
A_2     C     0.4495     0.6272     0.6032
A_2     C     0.1494     0.2146     0.0652
A_2     C     0.2212     0.8792     0.9031
A_3     C     0.4854     0.9449     0.2422
A_2     C     0.3818     0.6475     0.0215
A_3     C     0.0327     0.1176     0.2667
A_3     C     0.5174     0.5249     0.978
A_3     C     0.2514     0.1224     0.1947
A_3     C     0.7994     0.6876     0.2552
A_2     C     0.7657     0.0448     0.5986
A_0     C     0.576     0.8869     0.3904
A_3     C     0.9812     0.2942     0.6588
A_2     C     0.7758     0.4394     0.6549
A_3     C     0.4602     0.1592     0.5003
A_3     C     0.2784     0.6629     0.9205
A_0     C     0.3152     0.1163     0.2014
A_0     C     0.8372     0.0844     0.593
A_0     C     0.5043     0.9292     0.0452
A_2     C     0.3326     0.4944     0.0778
A_0     C     0.7871     0.5529     0.1398
A_3     C     0.1268     0.7334     0.6429
A_1     C     0.8031     0.9409     0.5072
A_1     C     0.7525     0.0782     0.6486
A_0     C     0.0248     0.5249     0.3079
A_0     C     0.5957     0.028     0.5315
A_3     C     0.8535     0.7525     0.3846
A_1     C     0.7517     0.6154     0.6359
A_0     C     0.385     0.2868     0.9244
A_2     C     0.0556     0.4364     0.0658
A_2     C     0.0608     0.0871     0.4356
A_0     C     0.6968     0.0973     0.1901
A_2     C     0.3221     0.0378     0.9371
A_1     C     0.8572     0.4556     0.671
A_1     C     0.8858     0.6073     0.0883
A_0     C     0.8705     0.6154     0.1606
A_2     C     0.9092     0.9191     0.523
A_3     C     0.2386     0.2613     0.9106
A_2     C     0.0695     0.5917     0.0326
A_0     C     0.1157     0.5001     0.6653
A_3     C     0.2165     0.2627     0.6607
A_1     C     0.9257     0.1407     0.9399
A_3     C     0.398     0.4697     0.6405
A_3     C     0.2508     0.3514     0.1954
A_1     C     0.872     0.7399     0.4064
A_1     C     0.2769     0.3763     0.8864
A_1     C     0.9618     0.9758     0.5283
A_3     C     0.5683     0.742     0.8795
A_1     C     0.7452     0.1311     0.8972
A_0     C     0.8506     0.4528     0.1166
A_1     C     0.2429     0.4124     0.8974
A_3     C     0.8201     0.2634     0.2872
A_2     C     0.147     0.1323     0.4203
A_1     C     0.5019     0.1724     0.6728
A_1     C     0.3515     0.4478     0.2813
A_0     C     0.3826     0.3627     0.0534
A_1     C     0.7728     0.321     0.5317
A_2     C     0.2904     0.2138     0.7178
A_1     C     0.6168     0.7359     0.4989
A_2     C     0.5051     0.5729     0.739
A_1     C     0.7464     0.065     0.5102
A_1     C     0.7561     0.6243     0.7762
A_2     C     0.136     0.2731     0.6793
A_1     C     0.6762     0.6663     0.3124
A_2     C     0.8003     0.5969     0.1313
A_3     C     0.8933     0.526     0.0282
A_3     C     0.4911     0.0244     0.8652
A_1     C     0.7134     0.3837     0.117
A_1     C     0.4763     0.7162     0.2056
A_3     C     0.3707     0.3851     0.5491
A_1     C     0.6684     0.3056     0.2869
A_2     C     0.471     0.0295     0.1605
A_0     C     0.9908     0.8742     0.2874
A_2     C     0.8544     0.6935     0.3983
A_2     C     0.6751     0.1712     0.1572
A_1     C     0.007     0.7924     0.3102
A_2     C     0.9561     0.9762     0.4959
A_0     C     0.403     0.6015     0.3874
A_2     C     0.8219     0.4867     0.9
A_1     C     0.3761     0.8791     0.7902
A_0     C     0.4315     0.4042     0.2086
A_3     C     0.9994     0.9117     0.6324
A_2     C     0.386     0.3695     0.9517
A_3     C     0.7577     0.6991     0.6684
A_1     C     0.1684     0.3151     0.285
A_1     C     0.5522     0.7265     0.7741
A_1     C     0.1382     0.6039     0.2141
A_1     C     0.3966     0.2491     0.5837
A_0     C     0.0473     0.7858     0.4831
A_2     C     0.9744     0.3648     0.3615
A_2     C     0.7189     0.0686     0.0273
A_3     C     0.5371     0.5305     0.4245
A_1     C     0.2935     0.4435     0.4894
A_3     C     0.5089     0.7708     0.1486
A_3     C     0.4037     0.9418     0.5587
A_3     C     0.4768     0.8536     0.7434
A_2     C     0.3927     0.9575     0.5896
A_0     C     0.5575     0.4616     0.7275
A_2     C     0.6311     0.9383     0.7692
A_3     C     0.014     0.8164     0.5551
A_0     C     0.1429     0.0713     0.2296
A_1     C     0.6904     0.8254     0.7562
A_0     C     0.6558     0.3361     0.7864
A_0     C     0.5396     0.6242     0.3173
A_0     C     0.6899     0.156     0.0219
A_3     C     0.9273     0.0967     0.9625
A_3     C     0.1259     0.1122     0.6665
A_3     C     0.0048     0.6655     0.9531
A_1     C     0.3921     0.2314     0.1133
A_3     C     0.9327     0.8926     0.9897
A_1     C     0.7443     0.1058     0.1466
A_0     C     0.5832     0.79     0.9618
A_2     C     0.3835     0.1605     0.4933
A_1     C     0.2152     0.2188     0.3651
A_0     C     0.9882     0.8101     0.8324
A_0     C     0.51     0.5592     0.2136
A_0     C     0.3834     0.3235     0.5757
A_1     C     0.6001     0.4848     0.5143
A_1     C     0.3052     0.7727     0.2967
A_1     C     0.288     0.7554     0.0074
A_1     C     0.9553     0.584     0.1682
A_2     C     0.9389     0.0549     0.2547
A_1     C     0.0696     0.6495     0.5843
A_2     C     0.0127     0.9427     0.7362
A_1     C     0.1658     0.2642     0.7971
A_2     C     0.075     0.8082     0.8067
A_2     C     0.5111     0.2703     0.6593
A_2     C     0.7857     0.9774     0.2587
A_3     C     0.3068     0.8472     0.6749
A_3     C     0.8318     0.3171     0.5239
A_0     C     0.8194     0.3848     0.1197
A_0     C     0.4309     0.6201     0.6658
A_3     C     0.3533     0.845     0.8696
A_1     C     0.867     0.3633     0.4844
A_3     C     0.5461     0.7101     0.7553
A_1     C     0.1349     0.9272     0.8641
A_1     C     0.0678     0.9439     0.3152
A_2     C     0.7168     0.6083     0.5041
A_0     C     0.3012     0.2297     0.2648
A_1     C     0.004     0.4834     0.8333
A_1     C     0.1629     0.5335     0.0433
A_3     C     0.4865     0.9181     0.541
A_2     C     0.2342     0.9165     0.3943
A_1     C     0.2867     0.2121     0.0811
A_3     C     0.7031     0.3583     0.8065
A_3     C     0.6365     0.5663     0.4761
A_2     C     0.7716     0.246     0.3774
A_3     C     0.6369     0.2889     0.7337
A_0     C     0.3139     0.725     0.1007
A_1     C     0.9885     0.6439     0.4963
A_3     C     0.7765     0.2104     0.92
A_0     C     0.2801     0.045     0.2799
A_1     C     0.1245     0.9854     0.9302
A_1     C     0.3141     0.131     0.996
A_0     C     0.8773     0.8128     0.2965
A_3     C     0.2544     0.2106     0.5214
A_1     C     0.5288     0.9516     0.7971
A_0     C     0.9227     0.9873     0.5203
A_3     C     0.4437     0.9651     0.3477
A_2     C     0.1488     0.2404     0.9989
A_1     C     0.0207     0.4743     0.2361
A_1     C     0.1984     0.8761     0.9771
A_1     C     0.6225     0.1616     0.0207
A_3     C     0.5722     0.4084     0.5404
A_1     C     0.0784     0.7743     0.7325
A_3     C     0.1605     0.4574     0.9247
A_1     C     0.6766     0.5945     0.6305
A_2     C     0.1827     0.8409     0.6475
A_1     C     0.8813     0.8251     0.3999
A_1     C     0.8048     0.7419     0.3944
A_0     C     0.8127     0.0415     0.2121
A_0     C     0.4468     0.2539     0.1917
A_1     C     0.3297     0.4808     0.975
A_3     C     0.0791     0.7435     0.631
A_1     C     0.5349     0.2219     0.1212
A_3     C     0.127     0.7171     0.5587
A_3     C     0.8491     0.4983     0.8484
A_0     C     0.1025     0.7771     0.2873
A_2     C     0.3334     0.0715     0.7736
A_1     C     0.352     0.6311     0.8569
A_2     C     0.5218     0.6803     0.4821
A_3     C     0.2929     0.5238     0.7978
A_0     C     0.173     0.1505     0.2029
A_2     C     0.2919     0.3723     0.0684
A_2     C     0.2995     0.4963     0.3283
A_3     C     0.7019     0.4975     0.7523
A_2     C     0.4185     0.1182     0.1462
A_1     C     0.7498     0.6583     0.4003
A_0     C     0.9847     0.1598     0.6738
A_3     C     0.542     0.7033     0.5212
A_1     C     0.1589     0.7602     0.2347
A_0     C     0.9804     0.9525     0.228
A_1     C     0.2129     0.78     0.4563
A_1     C     0.3077     0.3274     0.9053
A_3     C     0.9118     0.5484     0.7572
A_3     C     0.4691     0.78     0.7744
A_2     C     0.6329     0.347     0.5376
A_0     C     0.0945     0.2239     0.2047
A_2     C     0.1732     0.3851     0.2424
A_0     C     0.9823     0.8253     0.2276
A_3     C     0.3353     0.6058     0.9887
A_3     C     0.6786     0.1109     0.3376
A_2     C     0.2717     0.6163     0.5081
A_0     C     0.7318     0.0603     0.8883
A_0     C     0.5856     0.333     0.1008
A_1     C     0.7005     0.583     0.7182
A_1     C     0.9667     0.7412     0.297
A_1     C     0.5431     0.7457     0.6839
A_0     C     0.4965     0.8656     0.4739
A_0     C     0.1956     0.2802     0.7963
A_2     C     0.0116     0.1218     0.3547
A_3     C     0.3816     0.3256     0.2559
A_2     C     0.7088     0.4831     0.5168
A_0     C     0.1773     0.212     0.9001
A_3     C     0.2168     0.6462     0.8238
A_1     C     0.9361     0.0119     0.5266
A_2     C     0.3156     0.6168     0.4309
A_1     C     0.3695     0.3289     0.9561
A_0     C     0.2293     0.6795     0.4021
A_0     C     0.1119     0.0234     0.2255
A_0     C     0.8548     0.6923     0.7797
A_3     C     0.5409     0.567     0.6448
A_0     C     0.3349     0.0288     0.3325
A_0     C     0.4254     0.0495     0.8916
A_2     C     0.4998     0.5182     0.5979
A_1     C     0.6961     0.4361     0.2511
A_2     C     0.6954     0.9888     0.5266
A_3     C     0.9086     0.3623     0.4749
A_0     C     0.3506     0.1965     0.0169
A_2     C     0.7302     0.7916     0.5587
A_0     C     0.4868     0.0824     0.2528
A_0     C     0.371     0.3582     0.6201
A_0     C     0.1823     0.1345     0.0245
A_3     C     0.2944     0.7215     0.2301
A_3     C     0.5567     0.6137     0.2394
A_2     C     0.6841     0.7969     0.8086
A_0     C     0.0828     0.1325     0.1353
A_2     C     0.5188     0.3339     0.2411
A_2     C     0.9282     0.0175     0.6181
A_0     C     0.7788     0.4061     0.4893
A_2     C     0.3953     0.1369     0.0965
A_3     C     0.1467     0.8143     0.9476
A_3     C     0.9827     0.7609     0.199
A_0     C     0.8041     0.9164     0.593
A_2     C     0.8869     0.4535     0.3165
A_0     C     0.2562     0.243     0.1805
A_0     C     0.7811     0.0879     0.493
A_2     C     0.9622     0.4114     0.7083
A_0     C     0.679     0.6051     0.0318
A_0     C     0.9063     0.3672     0.6754
A_1     C     0.4635     0.4158     0.099
A_0     C     0.2266     0.3755     0.1432
A_0     C     0.2112     0.4464     0.3148
A_3     C     0.6503     0.0079     0.8035
A_0     C     0.8403     0.1462     0.1343
A_2     C     0.2595     0.4502     0.9587
A_2     C     0.3853     0.4044     0.6161
A_3     C     0.7264     0.7033     0.7195
A_0     C     0.1179     0.7726     0.3996
A_2     C     0.469     0.1397     0.3582
A_3     C     0.3583     0.015     0.2241
A_1     C     0.8822     0.817     0.9904
A_2     C     0.4775     0.9862     0.4888
A_0     C     0.8049     0.0407     0.3733
A_0     C     0.4521     0.6549     0.6473
A_3     C     0.0378     0.8364     0.8628
A_3     C     0.366     0.1426     0.8331
A_2     C     0.014     0.5877     0.9718
A_1     C     0.0454     0.4773     0.5663
A_1     C     0.938     0.4411     0.8661
A_0     C     0.0205     0.1311     0.6846
A_2     C     0.1551     0.4426     0.654
A_2     C     0.847     0.0323     0.4372
A_1     C     0.2102     0.9325     0.7616
A_3     C     0.5903     0.8262     0.4917
A_0     C     0.4073     0.4073     0.3564
A_0     C     0.6288     0.4107     0.1664
A_2     C     0.8461     0.219     0.3343
A_2     C     0.1396     0.6691     0.9545
A_0     C     0.0229     0.5978     0.9496
A_3     C     0.3505     0.847     0.8501
A_1     C     0.0198     0.8239     0.43
A_1     C     0.5008     0.0526     0.6783
A_0     C     0.6149     0.9469     0.1924
A_1     C     0.5068     0.7131     0.337
A_0     C     0.3577     0.6172     0.1928
A_2     C     0.0113     0.0349     0.0388
A_2     C     0.7304     0.9489     0.9654
A_2     C     0.876     0.6909     0.7052
A_2     C     0.4382     0.3492     0.9995
A_1     C     0.2574     0.6492     0.9389
A_2     C     0.3821     0.1037     0.0789
A_0     C     0.1169     0.3474     0.3528
A_1     C     0.7023     0.7839     0.6852
A_1     C     0.3162     0.0923     0.782
A_0     C     0.4282     0.2053     0.2854
A_3     C     0.665     0.0753     0.8673
A_2     C     0.7871     0.4551     0.6973
A_1     C     0.2208     0.5389     0.8256
A_0     C     0.2873     0.3618     0.2164
A_0     C     0.6646     0.7899     0.0024
A_0     C     0.8978     0.3251     0.0361
A_1     C     0.7415     0.7311     0.6264
A_0     C     0.1481     0.1837     0.8351
A_3     C     0.1287     0.8933     0.6866
A_1     C     0.2894     0.7441     0.0179
A_2     C     0.1413     0.1226     0.1224
A_3     C     0.6732     0.4317     0.248
A_3     C     0.7742     0.8417     0.0829
A_1     C     0.0802     0.9288     0.5074
A_0     C     0.136     0.5485     0.9704
A_3     C     0.9502     0.5514     0.654
A_0     C     0.5154     0.9221     0.8229
A_2     C     0.1928     0.5774     0.9204
A_1     C     0.7195     0.9607     0.3368
A_2     C     0.9621     0.303     0.1209
A_0     C     0.2039     0.1801     0.3102
A_0     C     0.1445     0.2963     0.6348
A_2     C     0.7835     0.8781     0.1382
A_2     C     0.8652     0.4413     0.3106
A_2     C     0.1249     0.8294     0.243
A_2     C     0.4972     0.7934     0.7038
A_3     C     0.4262     0.6576     0.0164
A_0     C     0.105     0.2096     0.4216
A_0     C     0.2001     0.6468     0.5023
A_3     C     0.6636     0.5314     0.2589
A_0     C     0.3476     0.2913     0.7723
A_2     C     0.557     0.3524     0.3595
A_2     C     0.1431     0.8504     0.1505
A_2     C     0.8917     0.5946     0.6972
A_3     C     0.7823     0.5081     0.4555
A_3     C     0.4815     0.5027     0.6057
A_0     C     0.3011     0.3471     0.6761
A_2     C     0.3849     0.7362     0.7025
A_3     C     0.8913     0.2322     0.6455
A_1     C     0.1343     0.0379     0.5952
A_0     C     0.0529     0.1449     0.9932
A_0     C     0.116     0.8363     0.0482
A_0     C     0.3994     0.8235     0.1201
A_0     C     0.0828     0.7031     0.4594
A_3     C     0.8131     0.3943     0.5558
A_0     C     0.9569     0.0655     0.4891
A_2     C     0.506     0.1873     0.4779
A_0     C     0.1844     0.5687     0.3761
A_0     C     0.732     0.2026     0.6433
A_1     C     0.9105     0.0784     0.4687
A_0     C     0.8759     0.137     0.829
A_2     C     0.5219     0.029     0.14
A_0     C     0.6892     0.7385     0.1852
A_1     C     0.2198     0.4018     0.7793
A_0     C     0.6809     0.4542     0.52
A_0     C     0.1733     0.9257     0.2638
A_0     C     0.7975     0.382     0.1119
A_3     C     0.3542     0.1491     0.0334
A_1     C     0.5782     0.9139     0.0685
A_0     C     0.9742     0.1426     0.879
A_3     C     0.0901     0.7399     0.9668
A_1     C     0.1951     0.3511     0.1094
A_0     C     0.8202     0.5733     0.5688
A_0     C     0.774     0.8167     0.9166
A_2     C     0.5572     0.5563     0.8628
A_0     C     0.3466     0.5739     0.0307
A_0     C     0.1491     0.4924     0.7737
A_2     C     0.7532     0.6436     0.7711
A_1     C     0.9355     0.2076     0.0139
A_1     C     0.0221     0.3523     0.3452
A_3     C     0.1162     0.4366     0.4817
A_1     C     0.7822     0.6363     0.4952
A_2     C     0.0488     0.4952     0.1438
A_1     C     0.6646     0.248     0.661
A_1     C     0.6008     0.7574     0.3089
A_2     C     0.6057     0.2061     0.5334
A_2     C     0.4086     0.9936     0.7812
A_1     C     0.1751     0.3305     0.9295
A_3     C     0.3171     0.9866     0.2489
A_3     C     0.7531     0.0342     0.4965
A_1     C     0.7155     0.6834     0.9099
A_1     C     0.804     0.4954     0.6239
A_3     C     0.7001     0.6797     0.1311
A_1     C     0.7302     0.6574     0.7301
A_0     C     0.3316     0.8923     0.0143
A_2     C     0.6938     0.6096     0.1011
A_1     C     0.8724     0.4039     0.2922
A_3     C     0.2574     0.8145     0.0442
A_3     C     0.746     0.2514     0.916
A_0     C     0.1879     0.526     0.7411
A_3     C     0.0014     0.188     0.5677
A_1     C     0.5952     0.3538     0.3826
A_2     C     0.8745     0.5018     0.9686
A_1     C     0.8044     0.3198     0.2426
A_1     C     0.9134     0.8811     0.344
A_2     C     0.6858     0.4315     0.4987
A_1     C     0.1357     0.1372     0.8033
A_2     C     0.609     0.2344     0.3294
A_1     C     0.0542     0.2315     0.9604
A_2     C     0.9416     0.9719     0.7218
A_1     C     0.6146     0.9728     0.6011
A_3     C     0.9673     0.6219     0.3517
A_2     C     0.9674     0.1964     0.295
A_1     C     0.9797     0.3159     0.3371
A_2     C     0.5804     0.6983     0.254
A_2     C     0.7301     0.6948     0.9447
A_2     C     0.8228     0.0634     0.1293
A_1     C     0.0041     0.3754     0.6327
A_2     C     0.8252     0.4656     0.3544
A_3     C     0.9175     0.2091     0.9276
A_2     C     0.6389     0.0699     0.8918
A_1     C     0.8833     0.0803     0.1548
A_3     C     0.8936     0.0567     0.4971
A_0     C     0.1659     0.5963     0.7696
A_2     C     0.5829     0.4268     0.0016
A_0     C     0.3125     0.9617     0.9688
A_2     C     0.6971     0.5568     0.7025
A_3     C     0.1807     0.019     0.0685
A_3     C     0.2033     0.1886     0.0746
A_0     C     0.1688     0.5138     0.1444
A_1     C     0.0328     0.3429     0.2589
A_1     C     0.5894     0.2765     0.9847
A_2     C     0.7235     0.4955     0.6633
A_3     C     0.2557     0.5468     0.1421
A_2     C     0.0331     0.2268     0.6666
A_2     C     0.6943     0.4034     0.1836
A_1     C     0.0589     0.9433     0.2235
A_2     C     0.2884     0.9904     0.1578
A_2     C     0.4317     0.1746     0.3789
A_0     C     0.0935     0.1473     0.0081
A_2     C     0.1518     0.2017     0.4405
A_1     C     0.8151     0.4136     0.4844
A_1     C     0.0859     0.138     0.0171
A_1     C     0.0113     0.2192     0.66
A_0     C     0.068     0.3863     0.5113
A_0     C     0.7183     0.2384     0.7381
A_1     C     0.4264     0.3204     0.7017
A_2     C     0.9165     0.4166     0.0666
A_2     C     0.1759     0.5659     0.5352
A_1     C     0.8432     0.9998     0.925
A_3     C     0.4129     0.4079     0.8708
A_3     C     0.3015     0.2398     0.1937
A_1     C     0.7982     0.0293     0.3856
A_2     C     0.0625     0.5626     0.5615
A_0     C     0.1135     0.7226     0.1765
A_1     C     0.4545     0.3656     0.5901
A_2     C     0.4742     0.4447     0.5706
A_3     C     0.0148     0.2819     0.313
A_2     C     0.3499     0.2275     0.8782
A_3     C     0.8005     0.704     0.912
A_2     C     0.3971     0.714     0.7432
A_2     C     0.6445     0.2304     0.9677
A_0     C     0.4845     0.263     0.2572
A_0     C     0.7965     0.0503     0.857
A_2     C     0.7372     0.3783     0.8686
A_3     C     0.3164     0.43     0.7627
A_0     C     0.1066     0.6521     0.6534
A_1     C     0.1755     0.3305     0.7832
A_3     C     0.3166     0.3169     0.91
A_0     C     0.2608     0.435     0.0421
A_3     C     0.2197     0.9409     0.1059
A_0     C     0.3957     0.1468     0.6866
A_3     C     0.7365     0.296     0.0484
A_3     C     0.8437     0.2289     0.0296
A_1     C     0.9124     0.1157     0.1082
A_0     C     0.1245     0.5969     0.3047
A_0     C     0.9847     0.0192     0.0914
A_2     C     0.2802     0.587     0.4577
A_0     C     0.6869     0.3449     0.8573
A_1     C     0.9345     0.9448     0.2566
A_2     C     0.1855     0.0984     0.7567
A_1     C     0.6808     0.3561     0.3575
A_3     C     0.8511     0.567     0.7536
A_0     C     0.7975     0.1539     0.3845
A_2     C     0.6839     0.5618     0.7154
A_3     C     0.3833     0.1317     0.9403
A_1     C     0.3204     0.2095     0.5223
A_3     C     0.898     0.4879     0.4025
A_1     C     0.4166     0.6833     0.3121
A_2     C     0.4925     0.4733     0.98
A_2     C     0.3457     0.5767     0.009
A_1     C     0.9172     0.0464     0.9946
A_1     C     0.4895     0.1219     0.3102
A_2     C     0.586     0.7993     0.2604
A_3     C     0.2731     0.136     0.398
A_2     C     0.8163     0.6294     0.3929
A_1     C     0.7993     0.0135     0.2982
A_2     C     0.3886     0.7608     0.5982
A_0     C     0.0006     0.7988     0.1525
A_2     C     0.178     0.2668     0.473
A_0     C     0.0817     0.6003     0.7816
A_2     C     0.4993     0.148     0.1206
A_1     C     0.3078     0.1721     0.3919
A_0     C     0.1336     0.3034     0.1093
A_2     C     0.228     0.1315     0.7159
A_3     C     0.8448     0.4421     0.5329
A_3     C     0.9677     0.309     0.994
A_3     C     0.3185     0.3152     0.2924
A_1     C     0.9455     0.9714     0.874
A_3     C     0.0184     0.0746     0.4575
A_0     C     0.7264     0.9436     0.4741
A_2     C     0.2952     0.2688     0.3441
A_0     C     0.6165     0.0248     0.9336
A_0     C     0.2838     0.5863     0.6946
A_2     C     0.6397     0.7418     0.9395
A_3     C     0.8289     0.0579     0.4112
A_3     C     0.9863     0.4595     0.9481
A_3     C     0.0521     0.4772     0.974
A_2     C     0.0515     0.632     0.5482
A_1     C     0.3722     0.9579     0.0568
A_1     C     0.1555     0.7569     0.6067
A_1     C     0.7458     0.6115     0.8791
A_2     C     0.118     0.8749     0.3508
A_3     C     0.2641     0.7676     0.929
A_0     C     0.2274     0.0581     0.0241
A_0     C     0.1932     0.5687     0.7887
A_0     C     0.8597     0.2473     0.7919
A_1     C     0.9669     0.3216     0.1294
A_1     C     0.7333     0.3479     0.8764
A_3     C     0.9869     0.1704     0.7824
A_2     C     0.9232     0.323     0.2508
A_2     C     0.7549     0.0085     0.2932
A_1     C     0.5529     0.9145     0.1651
A_1     C     0.4785     0.6003     0.9029
A_1     C     0.6158     0.3279     0.0698
A_0     C     0.6883     0.0612     0.7306
A_1     C     0.5601     0.5678     0.8637
A_2     C     0.5695     0.2733     0.4395
A_3     C     0.8244     0.4919     0.2859
A_1     C     0.8861     0.7475     0.3994
A_2     C     0.4818     0.2334     0.7368
A_3     C     0.4821     0.3665     0.1435
A_1     C     0.3891     0.0534     0.4892
A_2     C     0.4312     0.8888     0.7917
A_3     C     0.7063     0.2574     0.2161
A_2     C     0.9245     0.4148     0.1863
A_3     C     0.8078     0.2293     0.7975
A_3     C     0.4565     0.8944     0.8325
A_3     C     0.0327     0.8886     0.8173
A_1     C     0.525     0.7936     0.2848
A_3     C     0.4891     0.8159     0.4937
A_0     C     0.2798     0.4048     0.4106
A_3     C     0.1514     0.8764     0.4173
A_1     C     0.025     0.1309     0.4749
A_2     C     0.7374     0.8536     0.5174
A_0     C     0.1301     0.7467     0.9196
A_3     C     0.376     0.3429     0.1018
A_1     C     0.9741     0.0751     0.2133
A_1     C     0.2063     0.4791     0.1574
A_3     C     0.5026     0.0853     0.7519
A_0     C     0.967     0.7633     0.7299
A_2     C     0.8676     0.9345     0.0493
A_0     C     0.4111     0.0757     0.1415
A_2     C     0.3688     0.7103     0.0563
A_3     C     0.9735     0.5894     0.2408
A_0     C     0.2398     0.7445     0.2106
A_1     C     0.4167     0.3408     0.3799
A_1     C     0.7567     0.7065     0.9637
A_3     C     0.5479     0.0528     0.3923
A_1     C     0.5875     0.4919     0.1953
A_1     C     0.2279     0.8693     0.2609
A_0     C     0.9466     0.8943     0.6453
A_1     C     0.7459     0.5695     0.7565
A_1     C     0.5562     0.2642     0.404
A_0     C     0.5469     0.1226     0.9778
A_1     C     0.7153     0.9551     0.7434
A_1     C     0.0666     0.4553     0.1226
A_3     C     0.4501     0.1123     0.638
A_3     C     0.3455     0.1844     0.4111
A_1     C     0.9118     0.7295     0.8766
A_1     C     0.6595     0.151     0.7156
A_1     C     0.7717     0.5565     0.4603
A_1     C     0.5826     0.1044     0.5945
A_0     C     0.3459     0.1132     0.92
A_3     C     0.9912     0.5865     0.8645
A_3     C     0.0246     0.8507     0.698
A_3     C     0.1739     0.3981     0.7924
A_2     C     0.7102     0.6606     0.8931
A_3     C     0.2815     0.662     0.2728
A_1     C     0.1255     0.4755     0.1496
A_2     C     0.5256     0.7166     0.5876
A_1     C     0.1391     0.3583     0.5444
A_0     C     0.6137     0.2528     0.661
A_1     C     0.413     0.1689     0.2934
A_0     C     0.4166     0.7353     0.7982
A_2     C     0.9772     0.2017     0.4066
A_0     C     0.1807     0.948     0.296
A_2     C     0.0804     0.6608     0.7286
A_3     C     0.3153     0.477     0.1201
A_3     C     0.4585     0.5733     0.6218
A_2     C     0.6661     0.7199     0.7047
A_0     C     0.6432     0.0872     0.7479
A_2     C     0.8694     0.4257     0.8357
A_3     C     0.6531     0.0903     0.4431
A_1     C     0.5374     0.8798     0.1642
A_1     C     0.2195     0.5813     0.5892
A_0     C     0.3975     0.5147     0.0655
A_3     C     0.191     0.074     0.3241
A_0     C     0.6238     0.1207     0.3668
A_3     C     0.1797     0.2398     0.079
A_2     C     0.2148     0.4954     0.6503
A_0     C     0.3586     0.0763     0.6319
A_2     C     0.9754     0.6964     0.1274
A_3     C     0.2327     0.4909     0.6987
A_2     C     0.1559     0.1806     0.4448
A_3     C     0.5042     0.747     0.1044
A_2     C     0.8229     0.3227     0.7125
A_1     C     0.5946     0.0933     0.2127
A_0     C     0.1088     0.8405     0.4727
A_3     C     0.253     0.5244     0.9257
A_2     C     0.1472     0.1698     0.3233
A_0     C     0.0034     0.6459     0.6143
A_1     C     0.3989     0.0184     0.1452
A_2     C     0.8665     0.0477     0.5058
A_3     C     0.9172     0.6378     0.3975
A_1     C     0.0627     0.7455     0.6335
A_1     C     0.945     0.7213     0.3555
A_0     C     0.9788     0.8763     0.6764
A_2     C     0.4388     0.1101     0.2439
A_2     C     0.5315     0.3687     0.9096
A_3     C     0.7341     0.4611     0.9811
A_0     C     0.1541     0.8383     0.0802
A_3     C     0.578     0.2067     0.4123
A_3     C     0.7333     0.7914     0.9445
A_1     C     0.549     0.4653     0.5573
A_1     C     0.3654     0.1818     0.1313
A_1     C     0.049     0.1249     0.1995
A_3     C     0.9659     0.9191     0.9098
A_3     C     0.8736     0.1106     0.4569
A_2     C     0.5657     0.7416     0.3674
A_2     C     0.593     0.41     0.0747
A_2     C     0.3655     0.9642     0.4648
A_0     C     0.9315     0.6423     0.2406
A_3     C     0.6054     0.5399     0.9472
A_3     C     0.7923     0.6918     0.1984
A_3     C     0.9222     0.3785     0.6537
A_0     C     0.7195     0.7368     0.5911
A_3     C     0.973     0.5862     0.2481
A_2     C     0.5195     0.5047     0.8713
A_2     C     0.1389     0.6355     0.2703
A_0     C     0.1061     0.3593     0.0711
A_2     C     0.0992     0.5161     0.2579
A_3     C     0.6968     0.5817     0.3781
A_1     C     0.2345     0.2915     0.3838
A_1     C     0.6786     0.7491     0.5095
A_3     C     0.7487     0.287     0.6268
A_2     C     0.0835     0.5287     0.4679
A_1     C     0.9981     0.1426     0.7447
A_0     C     0.3071     0.6166     0.376
A_1     C     0.8163     0.7905     0.5905
A_0     C     0.904     0.8995     0.286
A_0     C     0.5587     0.0238     0.2172
A_0     C     0.7654     0.3281     0.7485
A_0     C     0.8845     0.7998     0.6099
A_2     C     0.2129     0.4482     0.4145
A_1     C     0.4076     0.6713     0.0235
A_1     C     0.5899     0.4302     0.7615
A_1     C     0.3999     0.5504     0.4318
A_3     C     0.1585     0.9398     0.2243
A_3     C     0.7283     0.0766     0.4266
A_3     C     0.3464     0.5342     0.8856
A_3     C     0.3424     0.2063     0.2588
A_0     C     0.4775     0.9175     0.6183
A_1     C     0.8264     0.0848     0.52
A_0     C     0.0165     0.619     0.1805
A_0     C     0.2715     0.5722     0.0091
A_3     C     0.8727     0.0692     0.9297
A_0     C     0.5135     0.1239     0.3631
A_1     C     0.4388     0.6017     0.087
A_3     C     0.0249     0.488     0.6774
A_0     C     0.4432     0.6818     0.788
A_0     C     0.098     0.3078     0.1657
A_0     C     0.7216     0.4406     0.9592
A_1     C     0.4752     0.1828     0.1132
A_1     C     0.7006     0.7009     0.9855
A_3     C     0.0515     0.0202     0.1301
A_2     C     0.7279     0.4263     0.688
A_2     C     0.0883     0.2687     0.0529
A_0     C     0.3874     0.1409     0.5648
A_2     C     0.8416     0.3645     0.808
A_1     C     0.1994     0.2239     0.5713
A_3     C     0.926     0.0203     0.5731
A_1     C     0.89     0.9219     0.9328
A_2     C     0.4558     0.4999     0.4285
A_0     C     0.3718     0.7422     0.8118
A_2     C     0.7402     0.6933     0.4312
A_1     C     0.0151     0.4335     0.0953
A_3     C     0.3115     0.6098     0.7533
A_1     C     0.8778     0.4989     0.2862
A_3     C     0.3951     0.8631     0.0065
A_3     C     0.2634     0.3652     0.0337
A_3     C     0.6649     0.9105     0.2475
A_1     C     0.031     0.8135     0.235
A_3     C     0.4485     0.3345     0.5461
A_1     C     0.7567     0.7084     0.1926
A_0     C     0.9308     0.0806     0.6179
A_0     C     0.8016     0.3399     0.5885
A_1     C     0.2622     0.0218     0.1759
A_0     C     0.003     0.544     0.2172
A_1     C     0.7764     0.7353     0.7882
A_1     C     0.0643     0.6702     0.1204
A_1     C     0.7777     0.886     0.7008
A_1     C     0.3891     0.2111     0.6191
A_0     C     0.1606     0.7505     0.5855
A_3     C     0.4869     0.2294     0.0258
A_1     C     0.085     0.6159     0.8899
A_1     C     0.9215     0.7966     0.9241
A_0     C     0.6021     0.5889     0.1488
A_0     C     0.4776     0.9192     0.7493
A_2     C     0.6849     0.4438     0.2318
A_3     C     0.1173     0.5878     0.1137
A_1     C     0.809     0.591     0.9303
A_3     C     0.7517     0.5689     0.2225
A_1     C     0.5132     0.1023     0.0969
A_0     C     0.9223     0.4842     0.0811
A_3     C     0.71     0.1402     0.2084
A_0     C     0.4957     0.0587     0.3551
A_2     C     0.637     0.0516     0.3026
A_3     C     0.4675     0.633     0.1713
A_3     C     0.6664     0.1102     0.3745
A_3     C     0.3468     0.1175     0.7724
A_2     C     0.1452     0.8066     0.5809
A_0     C     0.4347     0.2121     0.5686
A_2     C     0.0526     0.9961     0.825
A_1     C     0.7683     0.1129     0.1248
A_2     C     0.4387     0.2528     0.362
A_0     C     0.0531     0.7616     0.2043
A_2     C     0.1915     0.0213     0.9754
A_3     C     0.2398     0.744     0.2436
A_0     C     0.8628     0.6753     0.7747
A_0     C     0.5911     0.6448     0.3062
A_0     C     0.8022     0.4738     0.0075
A_1     C     0.1956     0.8167     0.0374
A_3     C     0.6862     0.1319     0.4611
A_3     C     0.1608     0.0937     0.8223
A_2     C     0.0366     0.3846     0.9179
A_2     C     0.981     0.6109     0.0977
A_1     C     0.2917     0.4263     0.3412
A_2     C     0.093     0.3627     0.2777
A_0     C     0.9137     0.1205     0.9607
A_1     C     0.9758     0.0367     0.9269
A_1     C     0.5156     0.9069     0.6304
A_2     C     0.3886     0.9733     0.6717
A_3     C     0.5527     0.3652     0.2143
A_2     C     0.9421     0.6998     0.606
A_3     C     0.4696     0.6913     0.6754
A_3     C     0.1137     0.7479     0.3975
A_0     C     0.7157     0.2718     0.0726
A_3     C     0.9804     0.8817     0.6735
A_1     C     0.6467     0.1518     0.228
A_2     C     0.6819     0.867     0.8479
A_1     C     0.42     0.1992     0.5563
A_3     C     0.9062     0.2245     0.6379
A_0     C     0.7732     0.7773     0.3469
A_3     C     0.6154     0.2946     0.125
A_1     C     0.7512     0.7473     0.7267
A_0     C     0.2007     0.2741     0.0301
A_3     C     0.6818     0.2102     0.25
A_0     C     0.9453     0.759     0.3845
A_1     C     0.673     0.7803     0.2605
A_3     C     0.6228     0.2968     0.5055
A_0     C     0.3175     0.0595     0.5624
A_1     C     0.8863     0.3739     0.58
A_0     C     0.2829     0.3001     0.1441
A_1     C     0.0656     0.4354     0.9567
A_0     C     0.5175     0.0071     0.9734
A_2     C     0.146     0.3867     0.5618
A_0     C     0.1264     0.3867     0.3423
A_1     C     0.7255     0.2824     0.7944
A_3     C     0.145     0.47     0.0274
A_1     C     0.4142     0.6268     0.5125
A_3     C     0.5269     0.1235     0.5915
A_3     C     0.8962     0.1394     0.0614
A_0     C     0.0448     0.2485     0.7275
A_1     C     0.2702     0.6773     0.6718
A_0     C     0.2717     0.198     0.6226
A_1     C     0.4747     0.3556     0.8679
A_1     C     0.947     0.5882     0.7042
A_2     C     0.2197     0.2138     0.0516
A_2     C     0.4646     0.6523     0.7438
A_3     C     0.8091     0.1907     0.653
A_2     C     0.3735     0.7339     0.8494
A_1     C     0.1236     0.4707     0.5785
A_1     C     0.3637     0.4876     0.0527
A_1     C     0.9944     0.2155     0.1377
A_3     C     0.5054     0.9584     0.6889
A_3     C     0.3224     0.656     0.0962
A_0     C     0.6086     0.4527     0.318
A_0     C     0.1307     0.133     0.5178
A_0     C     0.1638     0.4429     0.4611
