MAT-21

loop_
_symmetry_equiv_pos_as_xyz
  x,y,z
_cell_length_a          34.927
_cell_length_b          40.2739
_cell_length_c          35.5031
_cell_angle_alpha       90.0000
_cell_angle_beta        90.0000
_cell_angle_gamma       90.0000
loop_
_atom_site_label
_atom_site_type_symbol
_atom_site_fract_x
_atom_site_fract_y
_atom_site_fract_z
A_3     C     0.739     0.3019     0.6285
A_3     C     0.127     0.7566     0.7751
A_0     C     0.7002     0.9429     0.3199
A_0     C     0.1479     0.6511     0.9707
A_3     C     0.6665     0.352     0.153
A_3     C     0.181     0.2274     0.8892
A_1     C     0.8818     0.4304     0.6843
A_3     C     0.831     0.9634     0.9515
A_0     C     0.6421     0.8786     0.2209
A_3     C     0.9477     0.6921     0.9087
A_3     C     0.2051     0.1453     0.0869
A_2     C     0.6571     0.5424     0.408
A_2     C     0.9722     0.8748     0.5316
A_2     C     0.7401     0.1958     0.6459
A_3     C     0.5612     0.4477     0.0993
A_3     C     0.9876     0.3806     0.0784
A_0     C     0.465     0.2431     0.5809
A_1     C     0.8251     0.5448     0.3029
A_3     C     0.467     0.3596     0.615
A_1     C     0.3042     0.9593     0.9429
A_3     C     0.3049     0.4656     0.0588
A_0     C     0.952     0.9591     0.2215
A_2     C     0.8945     0.9781     0.508
A_3     C     0.527     0.2909     0.9973
A_3     C     0.872     0.2722     0.1216
A_0     C     0.6212     0.8146     0.2887
A_2     C     0.3205     0.4215     0.647
A_0     C     0.8657     0.3253     0.958
A_3     C     0.3426     0.0776     0.9769
A_0     C     0.1164     0.5783     0.8433
A_2     C     0.4606     0.4564     0.6092
A_1     C     0.5889     0.484     0.9806
A_2     C     0.4903     0.825     0.256
A_2     C     0.1033     0.2389     0.506
A_3     C     0.1513     0.6437     0.4216
A_2     C     0.73     0.156     0.8025
A_1     C     0.2882     0.845     0.9144
A_1     C     0.2588     0.4191     0.3027
A_2     C     0.3342     0.0087     0.3041
A_2     C     0.7338     0.3896     0.3938
A_3     C     0.024     0.8889     0.9168
A_3     C     0.428     0.8363     0.7666
A_2     C     0.564     0.0259     0.7874
A_3     C     0.6777     0.6545     0.1764
A_2     C     0.5147     0.3872     0.6194
A_1     C     0.2049     0.1785     0.5743
A_2     C     0.1069     0.5305     0.1969
A_2     C     0.59     0.7213     0.5778
A_3     C     0.0893     0.6258     0.3073
A_3     C     0.5051     0.5572     0.49
A_1     C     0.722     0.8116     0.2912
A_3     C     0.0845     0.5899     0.0526
A_3     C     0.397     0.7508     0.6507
A_0     C     0.0198     0.3529     0.3386
A_0     C     0.9036     0.4254     0.7713
A_3     C     0.1301     0.8984     0.4077
A_3     C     0.1238     0.5834     0.7744
A_2     C     0.8461     0.4865     0.6455
A_0     C     0.112     0.2195     0.7989
A_1     C     0.5644     0.7535     0.892
A_2     C     0.1152     0.6439     0.2753
A_0     C     0.5761     0.5809     0.197
A_0     C     0.4818     0.5797     0.4856
A_3     C     0.1406     0.4156     0.0564
A_1     C     0.0886     0.4126     0.3963
A_3     C     0.1368     0.9191     0.6958
A_1     C     0.0495     0.491     0.3667
A_1     C     0.3302     0.2463     0.6343
A_3     C     0.7513     0.6967     0.8485
A_0     C     0.5139     0.5274     0.7267
A_3     C     0.5392     0.8456     0.8148
A_3     C     0.0256     0.9946     0.021
A_2     C     0.8001     0.8367     0.6014
A_2     C     0.1695     0.554     0.784
A_2     C     0.1472     0.0579     0.1346
A_3     C     0.334     0.3333     0.7526
A_3     C     0.5957     0.5995     0.0594
A_0     C     0.5222     0.3841     0.9206
A_1     C     0.3723     0.5685     0.0645
A_3     C     0.7031     0.6495     0.8749
A_1     C     0.7234     0.9452     0.5335
A_2     C     0.2513     0.544     0.7041
A_1     C     0.4322     0.9502     0.2603
A_3     C     0.5115     0.9176     0.7855
A_0     C     0.3192     0.5244     0.1282
A_1     C     0.6643     0.2791     0.007
A_2     C     0.8908     0.781     0.7228
A_2     C     0.8998     0.7568     0.1521
A_1     C     0.6946     0.3874     0.4072
A_2     C     0.5873     0.1037     0.7756
A_0     C     0.553     0.4449     0.4797
A_2     C     0.883     0.9802     0.4239
A_0     C     0.9518     0.8049     0.6991
A_2     C     0.7535     0.3952     0.4649
A_0     C     0.6727     0.1167     0.9243
A_0     C     0.7146     0.318     0.8789
A_1     C     0.2386     0.091     0.7484
A_0     C     0.1346     0.4033     0.5716
A_1     C     0.4455     0.8573     0.3768
A_2     C     0.7857     0.7343     0.1076
A_2     C     0.3883     0.3173     0.5554
A_1     C     0.2324     0.8908     0.5187
A_3     C     0.217     0.2463     0.2682
A_0     C     0.6831     0.12     0.7447
A_3     C     0.334     0.4926     0.1136
A_3     C     0.4266     0.339     0.4222
A_3     C     0.7286     0.181     0.9487
A_0     C     0.8993     0.1833     0.488
A_0     C     0.8351     0.3336     0.4008
A_0     C     0.7698     0.1153     0.7261
A_0     C     0.8837     0.8986     0.9397
A_3     C     0.0616     0.4109     0.7625
A_1     C     0.4098     0.4061     0.607
A_0     C     0.2677     0.669     0.9015
A_2     C     0.9024     0.0631     0.6426
A_1     C     0.267     0.3644     0.1163
A_1     C     0.6776     0.3236     0.7643
A_0     C     0.0552     0.2136     0.124
A_2     C     0.2987     0.3553     0.8099
A_2     C     0.9475     0.396     0.9074
A_0     C     0.1081     0.6698     0.2459
A_3     C     0.7468     0.3287     0.3953
A_0     C     0.2573     0.867     0.9699
A_3     C     0.6941     0.3274     0.3585
A_2     C     0.0241     0.6674     0.5356
A_3     C     0.6159     0.4885     0.1587
A_0     C     0.254     0.0744     0.8114
A_2     C     0.9038     0.0937     0.9153
A_2     C     0.2555     0.1933     0.7628
A_2     C     0.2428     0.0951     0.347
A_1     C     0.0267     0.8494     0.3028
A_2     C     0.7229     0.7461     0.5859
A_3     C     0.8365     0.8162     0.1947
A_2     C     0.7067     0.7113     0.4642
A_1     C     0.6812     0.7642     0.675
A_2     C     0.624     0.7868     0.2507
A_2     C     0.1136     0.0946     0.691
A_1     C     0.7279     0.7386     0.8073
A_0     C     0.215     0.73     0.5976
A_2     C     0.3068     0.6869     0.8745
A_3     C     0.1677     0.4812     0.7583
A_2     C     0.6766     0.9853     0.8515
A_0     C     0.4233     0.0115     0.5289
A_1     C     0.0256     0.684     0.86
A_2     C     0.6788     0.6304     0.4077
A_2     C     0.8147     0.0759     0.918
A_2     C     0.6301     0.2072     0.6683
A_2     C     0.7772     0.3247     0.2938
A_2     C     0.9285     0.5482     0.6769
A_3     C     0.9843     0.9292     0.3714
A_2     C     0.335     0.4454     0.7033
A_0     C     0.3647     0.7967     0.368
A_3     C     0.1967     0.6397     0.6435
A_1     C     0.6729     0.3192     0.9369
A_3     C     0.6582     0.1356     0.7303
A_1     C     0.238     0.4665     0.8871
A_0     C     0.0521     0.4994     0.8494
A_3     C     0.9335     0.7871     0.913
A_1     C     0.7808     0.2387     0.3857
A_2     C     0.2476     0.5214     0.4292
A_1     C     0.408     0.4026     0.9926
A_3     C     0.9085     0.7526     0.8615
A_0     C     0.2161     0.9522     0.532
A_1     C     0.7071     0.696     0.0545
A_1     C     0.5256     0.6971     0.1259
A_3     C     0.7485     0.0515     0.7571
A_1     C     0.8547     0.4889     0.8478
A_3     C     0.0868     0.8085     0.4663
A_2     C     0.2487     0.4311     0.5038
A_1     C     0.8592     0.2174     0.7131
A_2     C     0.7762     0.0607     0.999
A_1     C     0.869     0.8698     0.7492
A_2     C     0.1933     0.194     0.186
A_3     C     0.1279     0.6789     0.5655
A_2     C     0.3084     0.1313     0.5915
A_0     C     0.9356     0.9859     0.0569
A_3     C     0.3676     0.7303     0.7209
A_3     C     0.7138     0.4304     0.9229
A_3     C     0.5218     0.2809     0.5469
A_1     C     0.4777     0.452     0.3452
A_2     C     0.2866     0.3143     0.3586
A_2     C     0.514     0.457     0.1197
A_2     C     0.0825     0.7787     0.517
A_1     C     0.5215     0.1068     0.894
A_3     C     0.1699     0.2349     0.6454
A_1     C     0.5315     0.8651     0.6855
A_3     C     0.7817     0.2651     0.0208
A_0     C     0.7395     0.4661     0.4512
A_1     C     0.5372     0.2896     0.5449
A_1     C     0.017     0.6831     0.5098
A_2     C     0.4589     0.1222     0.5625
A_3     C     0.4916     0.3175     0.3292
A_2     C     0.1945     0.0013     0.088
A_2     C     0.176     0.8525     0.3378
A_2     C     0.5653     0.2981     0.7511
A_1     C     0.9288     0.3914     0.3647
A_3     C     0.5449     0.7583     0.7197
A_3     C     0.2724     0.9833     0.968
A_2     C     0.2856     0.0923     0.7937
A_0     C     0.3754     0.3405     0.414
A_1     C     0.2019     0.9164     0.9819
A_0     C     0.3284     0.7345     0.4852
A_1     C     0.4072     0.7368     0.067
A_2     C     0.3392     0.6947     0.5863
A_2     C     0.8762     0.839     0.1919
A_0     C     0.7373     0.9673     0.0031
A_1     C     0.1385     0.9754     0.7154
A_1     C     0.0702     0.0639     0.9661
A_1     C     0.6333     0.053     0.6143
A_3     C     0.5209     0.0549     0.2197
A_2     C     0.6391     0.8683     0.7287
A_0     C     0.1098     0.4414     0.3663
A_2     C     0.4756     0.7478     0.6268
A_0     C     0.2915     0.6157     0.5349
A_0     C     0.7062     0.5637     0.9677
A_0     C     0.8875     0.4519     0.4677
A_0     C     0.9029     0.6885     0.0873
A_2     C     0.8149     0.4751     0.3158
A_1     C     0.6965     0.2952     0.4133
A_3     C     0.9424     0.5752     0.2077
A_2     C     0.654     0.3954     0.2133
A_0     C     0.7568     0.2296     0.6524
A_0     C     0.9341     0.6485     0.1441
A_1     C     0.3115     0.8328     0.1594
A_2     C     0.8431     0.9399     0.7662
A_0     C     0.0543     0.1393     0.6298
A_0     C     0.7691     0.1868     0.9533
A_0     C     0.8389     0.7807     0.0676
A_0     C     0.8914     0.6488     0.5919
A_2     C     0.4706     0.7084     0.8072
A_3     C     0.0774     0.4877     0.579
A_3     C     0.586     0.3889     0.052
A_1     C     0.3734     0.7411     0.8273
A_1     C     0.5932     0.7353     0.6024
A_2     C     0.8591     0.8918     0.112
A_2     C     0.5161     0.4678     0.541
A_2     C     0.2506     0.7646     0.9596
A_3     C     0.1166     0.0179     0.8341
A_0     C     0.6632     0.3278     0.8706
A_3     C     0.7242     0.4032     0.9103
A_1     C     0.7094     0.7448     0.71
A_2     C     0.2584     0.6059     0.4081
A_2     C     0.386     0.4721     0.7484
A_1     C     0.9746     0.875     0.2193
A_0     C     0.9936     0.3548     0.9365
A_0     C     0.4709     0.9919     0.4121
A_3     C     0.9986     0.9768     0.4023
A_2     C     0.3538     0.8283     0.8496
A_1     C     0.8212     0.2144     0.7144
A_1     C     0.8732     0.979     0.7825
A_1     C     0.7186     0.2454     0.5527
A_3     C     0.5742     0.1502     0.1226
A_3     C     0.4259     0.2532     0.7191
A_1     C     0.1348     0.2006     0.6507
A_3     C     0.4025     0.097     0.9069
A_2     C     0.092     0.2085     0.3694
A_1     C     0.693     0.7831     0.9078
A_2     C     0.0281     0.8205     0.862
A_2     C     0.5528     0.9569     0.4712
A_0     C     0.8937     0.2753     0.5941
A_1     C     0.8448     0.9684     0.249
A_1     C     0.8011     0.5457     0.6138
A_1     C     0.6791     0.4165     0.8459
A_3     C     0.6161     0.2246     0.9992
A_3     C     0.6706     0.2604     0.2922
A_0     C     0.1633     0.2686     0.7582
A_0     C     0.473     0.1707     0.0641
A_0     C     0.8031     0.8764     0.5245
A_3     C     0.552     0.9015     0.9687
A_0     C     0.3981     0.6175     0.5365
A_1     C     0.5847     0.5252     0.1576
A_2     C     0.8962     0.1848     0.8115
A_3     C     0.8562     0.5951     0.3424
A_2     C     0.9578     0.8231     0.5556
A_2     C     0.8933     0.7991     0.5819
A_1     C     0.7384     0.9729     0.0309
A_1     C     0.9068     0.0786     0.3127
A_0     C     0.6892     0.4133     0.6698
A_1     C     0.8019     0.7304     0.39
A_0     C     0.2236     0.1976     0.6622
A_2     C     0.5356     0.2658     0.9202
A_0     C     0.0083     0.5734     0.2249
A_3     C     0.936     0.3891     0.1096
A_3     C     0.4859     0.0884     0.791
A_3     C     0.7583     0.1765     0.3087
A_3     C     0.0122     0.1089     0.2305
A_3     C     0.4277     0.6105     0.7563
A_3     C     0.7407     0.2104     0.5514
A_3     C     0.3867     0.4332     0.4362
A_0     C     0.5177     0.5576     0.0223
A_0     C     0.5752     0.7471     0.7812
A_2     C     0.6526     0.4491     0.1989
A_0     C     0.712     0.1271     0.19
A_1     C     0.1651     0.7141     0.6987
A_2     C     0.0841     0.6885     0.7006
A_1     C     0.2284     0.2908     0.608
A_3     C     0.8986     0.959     0.6636
A_3     C     0.2805     0.2256     0.5697
A_0     C     0.4269     0.7098     0.2534
A_0     C     0.3137     0.3306     0.3976
A_2     C     0.1652     0.7282     0.4352
A_1     C     0.0493     0.774     0.4539
A_0     C     0.029     0.1444     0.884
A_2     C     0.3871     0.9711     0.6481
A_1     C     0.4297     0.7248     0.6636
A_2     C     0.8652     0.7438     0.396
A_1     C     0.8523     0.2923     0.4055
A_1     C     0.3483     0.1112     0.0942
A_3     C     0.1669     0.2702     0.3389
A_3     C     0.9118     0.2859     0.21
A_1     C     0.8193     0.7873     0.2977
A_2     C     0.7678     0.2664     0.6553
A_2     C     0.2576     0.406     0.7955
A_2     C     0.9064     0.389     0.9513
A_3     C     0.3353     0.2189     0.9053
A_2     C     0.4258     0.4705     0.1621
A_3     C     0.0234     0.2548     0.9159
A_3     C     0.8395     0.0838     0.864
A_1     C     0.7458     0.4992     0.0254
A_3     C     0.4919     0.5276     0.895
A_1     C     0.2389     0.5     0.454
A_1     C     0.8321     0.75     0.3075
A_2     C     0.555     0.9518     0.8065
A_1     C     0.0497     0.612     0.3844
A_0     C     0.3756     0.5718     0.4383
A_0     C     0.1105     0.804     0.8508
A_0     C     0.245     0.5452     0.8644
A_1     C     0.5656     0.1434     0.5673
A_3     C     0.4139     0.8309     0.4783
A_2     C     0.0652     0.31     0.682
A_0     C     0.0205     0.9979     0.0003
A_3     C     0.6862     0.3534     0.7184
A_0     C     0.2519     0.4403     0.2424
A_1     C     0.7336     0.522     0.3422
A_2     C     0.9084     0.7241     0.0949
A_1     C     0.6202     0.5417     0.2762
A_3     C     0.6203     0.881     0.294
A_1     C     0.1731     0.5908     0.6877
A_2     C     0.4694     0.3628     0.2026
A_3     C     0.1764     0.1454     0.3638
A_0     C     0.7826     0.7434     0.0541
A_3     C     0.4343     0.5037     0.3448
A_0     C     0.027     0.5997     0.408
A_0     C     0.4628     0.3352     0.5909
A_2     C     0.2604     0.3696     0.5564
A_2     C     0.7491     0.1875     0.1947
A_0     C     0.125     0.5733     0.7131
A_2     C     0.3832     0.9833     0.6586
A_0     C     0.0281     0.588     0.8184
A_1     C     0.9566     0.1911     0.7114
A_0     C     0.977     0.2828     0.764
A_3     C     0.4326     0.7652     0.5532
A_1     C     0.9854     0.8345     0.2829
A_0     C     0.668     0.9089     0.7082
A_2     C     0.5154     0.1531     0.0129
A_3     C     0.6472     0.3555     0.7994
A_2     C     0.8094     0.1076     0.8304
A_0     C     0.9043     0.881     0.2595
A_3     C     0.7494     0.652     0.3808
A_1     C     0.7645     0.2775     0.4627
A_3     C     0.3739     0.2145     0.4927
A_3     C     0.4275     0.3744     0.0236
A_3     C     0.6722     0.7263     0.0939
A_3     C     0.8598     0.3903     0.2201
A_3     C     0.7357     0.8857     0.2694
A_3     C     0.2779     0.2071     0.6281
A_0     C     0.969     0.3784     0.9896
A_3     C     0.0818     0.5175     0.2685
A_2     C     0.5757     0.5907     0.2678
A_1     C     0.0111     0.23     0.3019
A_0     C     0.3813     0.5348     0.1237
A_0     C     0.5425     0.2157     0.3804
A_3     C     0.2291     0.5674     0.7421
A_2     C     0.9369     0.1995     0.8763
A_3     C     0.9784     0.7675     0.5771
A_1     C     0.3262     0.2504     0.9316
A_2     C     0.0405     0.5382     0.948
A_2     C     0.796     0.4832     0.0463
A_0     C     0.2733     0.8998     0.6872
A_1     C     0.1251     0.1793     0.7494
A_3     C     0.7038     0.0909     0.0948
A_1     C     0.9045     0.0583     0.626
A_3     C     0.8581     0.4916     0.6742
A_3     C     0.135     0.113     0.7735
A_0     C     0.4008     0.5401     0.4931
A_2     C     0.391     0.8047     0.0091
A_1     C     0.2177     0.9685     0.8707
A_1     C     0.0531     0.8996     0.2667
A_3     C     0.5971     0.906     0.4687
A_3     C     0.5321     0.5608     0.7693
A_3     C     0.482     0.1601     0.1596
A_0     C     0.1505     0.8245     0.226
A_3     C     0.0909     0.4176     0.0467
A_3     C     0.7198     0.276     0.7182
A_3     C     0.7166     0.1623     0.8975
A_3     C     0.462     0.105     0.6642
A_1     C     0.067     0.3421     0.1859
A_2     C     0.0281     0.2958     0.7133
A_0     C     0.7841     0.4754     0.4313
A_1     C     0.6675     0.1638     0.6292
A_0     C     0.3218     0.2969     0.6438
A_3     C     0.0099     0.5887     0.6475
A_3     C     0.6719     0.7747     0.2529
A_2     C     0.2405     0.6522     0.7658
A_2     C     0.5562     0.8293     0.9835
A_0     C     0.3615     0.9141     0.5826
A_1     C     0.5186     0.3551     0.1611
A_3     C     0.5006     0.0629     0.4655
A_3     C     0.4463     0.0239     0.6216
A_0     C     0.3953     0.4697     0.0651
A_3     C     0.0008     0.2084     0.4343
A_3     C     0.5088     0.1995     0.7521
A_3     C     0.8249     0.7211     0.0533
A_3     C     0.2722     0.8244     0.8709
A_2     C     0.5201     0.1245     0.6797
A_1     C     0.8876     0.8942     0.8872
A_2     C     0.839     0.7756     0.8411
A_3     C     0.3926     0.0555     0.0092
A_3     C     0.8741     0.0901     0.5877
A_3     C     0.917     0.396     0.6705
A_2     C     0.1866     0.8002     0.1602
A_3     C     0.3384     0.1187     0.4205
A_1     C     0.3671     0.0441     0.1343
A_3     C     0.734     0.468     0.4334
A_3     C     0.4476     0.0006     0.7388
A_0     C     0.2887     0.8896     0.5455
A_2     C     0.0781     0.184     0.8421
A_3     C     0.3235     0.4382     0.4043
A_0     C     0.76     0.1087     0.7581
A_3     C     0.24     0.0396     0.7368
A_1     C     0.3111     0.3668     0.105
A_0     C     0.7199     0.0615     0.247
A_2     C     0.7217     0.1284     0.4061
A_0     C     0.2876     0.6361     0.5467
A_1     C     0.0568     0.599     0.4348
A_0     C     0.4664     0.9708     0.9392
A_1     C     0.4021     0.8581     0.0119
A_1     C     0.2051     0.0031     0.3809
A_3     C     0.5475     0.4195     0.4641
A_1     C     0.5518     0.6177     0.1005
A_1     C     0.0836     0.4409     0.6053
A_3     C     0.2379     0.842     0.5507
A_2     C     0.9051     0.5104     0.8023
A_3     C     0.9129     0.5151     0.4181
A_0     C     0.2011     0.3774     0.1114
A_2     C     0.949     0.5829     0.3859
A_1     C     0.702     0.074     0.4393
A_0     C     0.0443     0.5957     0.738
A_1     C     0.2539     0.8669     0.9085
A_0     C     0.6337     0.0389     0.6143
A_3     C     0.9309     0.0847     0.4714
A_0     C     0.349     0.6488     0.4485
A_0     C     0.1483     0.0151     0.7185
A_3     C     0.9099     0.7679     0.2105
A_1     C     0.9799     0.4897     0.8376
A_0     C     0.5854     0.2396     0.6398
A_2     C     0.9747     0.2875     0.1333
A_2     C     0.0784     0.1855     0.2825
A_2     C     0.5263     0.095     0.9269
A_1     C     0.7485     0.3002     0.6082
A_1     C     0.4088     0.985     0.656
A_0     C     0.966     0.9707     0.4014
A_1     C     0.9861     0.06     0.7923
A_2     C     0.8265     0.9523     0.4668
A_0     C     0.6812     0.4441     0.6606
A_1     C     0.3104     0.2995     0.0213
A_2     C     0.1643     0.8111     0.1888
A_0     C     0.846     0.2535     0.8414
A_3     C     0.0151     0.5707     0.3595
A_0     C     0.4282     0.607     0.2656
A_1     C     0.811     0.8743     0.1989
A_3     C     0.145     0.9223     0.2462
A_2     C     0.2863     0.1587     0.9407
A_2     C     0.0501     0.4646     0.8732
A_1     C     0.2209     0.9298     0.0874
A_0     C     0.9003     0.1119     0.5467
A_3     C     0.7299     0.6848     0.2242
A_3     C     0.6193     0.5335     0.9678
A_1     C     0.8565     0.5143     0.3387
A_3     C     0.6063     0.1402     0.739
A_3     C     0.5079     0.4924     0.554
A_3     C     0.2617     0.8695     0.3487
A_1     C     0.0028     0.3428     0.3629
A_1     C     0.0285     0.4659     0.7566
A_1     C     0.461     0.1222     0.5666
A_1     C     0.7292     0.645     0.6966
A_3     C     0.5694     0.5123     0.3692
A_2     C     0.5419     0.2636     0.2913
A_0     C     0.0069     0.2854     0.1043
A_3     C     0.8676     0.0436     0.3929
A_0     C     0.1079     0.7571     0.2869
A_3     C     0.4509     0.8042     0.4218
A_3     C     0.3393     0.4889     0.9931
A_1     C     0.2779     0.3553     0.315
A_3     C     0.8635     0.4191     0.616
A_3     C     0.5209     0.8445     0.2736
A_0     C     0.8653     0.8529     0.1704
A_3     C     0.5072     0.1879     0.0579
A_1     C     0.1844     0.9301     0.2119
A_3     C     0.0473     0.1328     0.3582
A_2     C     0.1182     0.407     0.7836
A_3     C     0.7716     0.4035     0.2891
A_0     C     0.3357     0.6609     0.3852
A_1     C     0.7646     0.2154     0.7824
A_0     C     0.4661     0.2928     0.6654
A_3     C     0.7821     0.3313     0.819
A_3     C     0.5015     0.0926     0.4584
A_2     C     0.0137     0.0611     0.8305
A_2     C     0.2598     0.4009     0.7341
A_2     C     0.8547     0.7626     0.6459
A_1     C     0.0967     0.335     0.0396
A_3     C     0.6748     0.9282     0.4168
A_0     C     0.4669     0.4662     0.8406
A_1     C     0.4806     0.9747     0.0977
A_3     C     0.9976     0.1342     0.7482
A_0     C     0.1595     0.9596     0.115
A_2     C     0.0185     0.4493     0.8574
A_2     C     0.7357     0.1603     0.1355
A_1     C     0.468     0.8797     0.2761
A_1     C     0.0233     0.085     0.7026
A_2     C     0.7446     0.2285     0.5351
A_3     C     0.409     0.6787     0.3591
A_3     C     0.0855     0.3863     0.8821
A_2     C     0.0331     0.0367     0.6352
A_3     C     0.1793     0.8305     0.3167
A_3     C     0.7082     0.5329     0.2964
A_0     C     0.2252     0.6917     0.1745
A_0     C     0.6763     0.097     0.3113
A_0     C     0.3399     0.3416     0.4568
A_1     C     0.3621     0.7614     0.7246
A_2     C     0.4834     0.1659     0.8449
A_3     C     0.0022     0.4361     0.2139
A_2     C     0.0521     0.0396     0.9799
A_2     C     0.7589     0.1912     0.94
A_3     C     0.7278     0.7457     0.9853
A_1     C     0.8674     0.709     0.366
A_1     C     0.3221     0.4491     0.1886
A_2     C     0.2124     0.5233     0.3321
A_0     C     0.3758     0.3371     0.4241
A_0     C     0.473     0.9705     0.8663
A_3     C     0.5621     0.0824     0.543
A_1     C     0.5228     0.012     0.351
A_2     C     0.5109     0.6675     0.5522
A_3     C     0.4853     0.4053     0.7038
A_0     C     0.5624     0.4196     0.0101
A_1     C     0.1217     0.7646     0.0979
A_0     C     0.7687     0.3939     0.2918
A_1     C     0.0314     0.3969     0.0937
A_0     C     0.5622     0.4705     0.2834
A_3     C     0.3517     0.7601     0.9062
A_0     C     0.2601     0.7755     0.5564
A_3     C     0.6711     0.6902     0.0695
A_2     C     0.1577     0.6617     0.9212
A_0     C     0.7098     0.9099     0.5418
A_0     C     0.3371     0.867     0.6042
A_2     C     0.7713     0.9109     0.0971
A_1     C     0.792     0.2352     0.8161
A_2     C     0.8532     0.6024     0.8805
A_3     C     0.4636     0.1509     0.5066
A_3     C     0.5531     0.9913     0.8929
A_2     C     0.4618     0.5537     0.1306
A_0     C     0.503     0.4663     0.4094
A_3     C     0.7553     0.8914     0.0538
A_1     C     0.924     0.7521     0.8491
A_1     C     0.569     0.2809     0.0801
A_2     C     0.5336     0.5686     0.6437
A_2     C     0.3912     0.5537     0.6271
A_1     C     0.4289     0.1434     0.8092
A_1     C     0.5925     0.6504     0.0422
A_3     C     0.3848     0.8375     0.7397
A_2     C     0.8514     0.7593     0.2193
A_0     C     0.5193     0.1449     0.8424
A_1     C     0.3348     0.102     0.6589
A_3     C     0.9674     0.7753     0.9162
A_1     C     0.5179     0.6995     0.8578
A_3     C     0.3546     0.0395     0.0127
A_3     C     0.2883     0.7794     0.7673
A_0     C     0.9946     0.7349     0.6785
A_2     C     0.4793     0.3817     0.5391
A_2     C     0.1269     0.2676     0.242
A_2     C     0.4964     0.8605     0.5639
A_2     C     0.9763     0.1455     0.7292
A_3     C     0.892     0.9123     0.0541
A_2     C     0.6465     0.3592     0.9621
A_2     C     0.5016     0.8233     0.0154
A_0     C     0.4441     0.4303     0.9623
A_0     C     0.8746     0.7184     0.1665
A_2     C     0.5262     0.1478     0.7207
A_3     C     0.1178     0.3896     0.2506
A_2     C     0.579     0.1407     0.7753
A_3     C     0.2096     0.7136     0.5102
A_1     C     0.372     0.9695     0.4654
A_1     C     0.4049     0.2542     0.4825
A_3     C     0.6695     0.9481     0.3948
A_0     C     0.9998     0.8545     0.672
A_2     C     0.9324     0.7427     0.2459
A_2     C     0.2618     0.5722     0.5423
A_2     C     0.0804     0.7046     0.1076
A_3     C     0.3683     0.5675     0.9763
A_1     C     0.9037     0.2017     0.3274
A_1     C     0.9857     0.5862     0.9661
A_2     C     0.8139     0.5566     0.1635
A_0     C     0.4843     0.9339     0.1772
A_2     C     0.564     0.6129     0.4425
A_1     C     0.9996     0.2783     0.8423
A_1     C     0.9081     0.0137     0.9064
A_2     C     0.5504     0.6882     0.2542
A_1     C     0.1033     0.5954     0.6053
A_0     C     0.9555     0.7045     0.2183
A_2     C     0.2634     0.0809     0.6793
A_3     C     0.7591     0.288     0.9838
A_0     C     0.3134     0.6364     0.8852
A_0     C     0.7438     0.6918     0.1384
A_1     C     0.4295     0.6874     0.6124
A_0     C     0.097     0.312     0.9138
A_2     C     0.366     0.6653     0.0641
A_2     C     0.5538     0.9302     0.4368
A_3     C     0.4016     0.256     0.2885
A_2     C     0.0786     0.7912     0.3853
A_1     C     0.7659     0.1205     0.6496
A_0     C     0.4759     0.9593     0.1091
A_3     C     0.6237     0.5184     0.9345
A_2     C     0.9599     0.8526     0.8364
A_1     C     0.252     0.7258     0.5347
A_0     C     0.4248     0.7496     0.276
A_2     C     0.4517     0.8797     0.7029
A_0     C     0.7799     0.2346     0.3223
A_2     C     0.1371     0.7621     0.8326
A_2     C     0.8638     0.0844     0.8116
A_2     C     0.8625     0.1144     0.8734
A_2     C     0.348     0.2662     0.0117
A_2     C     0.8773     0.9042     0.162
A_0     C     0.8515     0.7601     0.7729
A_3     C     0.3959     0.9587     0.2014
A_2     C     0.3079     0.3591     0.3684
A_1     C     0.9916     0.2918     0.4604
A_2     C     0.4528     0.3584     0.0328
A_3     C     0.7224     0.1843     0.3821
A_0     C     0.4595     0.3482     0.0148
A_1     C     0.2155     0.1866     0.7655
A_1     C     0.8044     0.7972     0.6166
A_0     C     0.1257     0.7663     0.6256
A_1     C     0.7834     0.9677     0.9809
A_2     C     0.6305     0.8582     0.4467
A_1     C     0.3774     0.0058     0.5633
A_2     C     0.8709     0.8721     0.065
A_1     C     0.4456     0.9183     0.7957
A_2     C     0.6184     0.5679     0.8044
A_0     C     0.1765     0.6754     0.7523
A_0     C     0.861     0.1803     0.3252
A_0     C     0.701     0.0162     0.3268
A_2     C     0.2618     0.0379     0.2007
A_2     C     0.363     0.3955     0.2397
A_2     C     0.5706     0.3363     0.4559
A_0     C     0.4714     0.533     0.8116
A_3     C     0.5331     0.0884     0.7549
A_2     C     0.8944     0.9941     0.5129
A_3     C     0.3309     0.9264     0.1479
A_3     C     0.8759     0.5054     0.2591
A_2     C     0.6026     0.1783     0.2791
A_0     C     0.6107     0.7691     0.4084
A_3     C     0.0291     0.0211     0.724
A_0     C     0.0658     0.8015     0.7676
A_0     C     0.3268     0.0788     0.1107
A_2     C     0.728     0.8357     0.202
A_1     C     0.138     0.9905     0.4665
A_1     C     0.0245     0.9453     0.5943
A_2     C     0.7408     0.5139     0.1474
A_3     C     0.2599     0.244     0.8709
A_0     C     0.5274     0.3906     0.1404
A_2     C     0.2869     0.1508     0.1652
A_1     C     0.2485     0.6183     0.6933
A_3     C     0.9315     0.9699     0.636
A_0     C     0.4221     0.6178     0.134
A_1     C     0.7963     0.3131     0.7882
A_3     C     0.0105     0.1167     0.2511
A_1     C     0.3207     0.6332     0.3474
A_1     C     0.4429     0.0521     0.0872
A_3     C     0.3578     0.0746     0.2099
A_0     C     0.1324     0.1409     0.2717
A_1     C     0.5701     0.4515     0.9043
A_1     C     0.3883     0.1759     0.6215
A_3     C     0.2548     0.6258     0.4292
A_2     C     0.918     0.8061     0.9218
A_3     C     0.4813     0.3363     0.9644
A_3     C     0.8162     0.3786     0.3384
A_2     C     0.7554     0.7048     0.5593
A_0     C     0.7325     0.9202     0.906
A_1     C     0.4611     0.3036     0.745
A_3     C     0.5389     0.7006     0.5769
A_2     C     0.926     0.9111     0.9945
A_1     C     0.8698     0.036     0.9082
A_1     C     0.4584     0.7904     0.4594
A_0     C     0.0474     0.0949     0.1137
A_0     C     0.8968     0.8091     0.7472
A_2     C     0.6616     0.725     0.7804
A_1     C     0.5974     0.2468     0.3265
A_3     C     0.5145     0.1666     0.6268
A_1     C     0.0765     0.2535     0.7283
A_1     C     0.3297     0.0259     0.87
A_1     C     0.872     0.7291     0.7234
A_0     C     0.0082     0.5067     0.4024
A_0     C     0.205     0.0984     0.6493
A_0     C     0.6474     0.9434     0.0427
A_1     C     0.9883     0.386     0.3428
A_3     C     0.1088     0.0448     0.4933
A_3     C     0.5004     0.2068     0.3207
A_2     C     0.2221     0.534     0.4994
A_0     C     0.2309     0.5932     0.1173
A_3     C     0.7713     0.6839     0.8927
A_3     C     0.6239     0.1272     0.8441
A_2     C     0.3048     0.3251     0.2581
A_1     C     0.3185     0.1554     0.6737
A_3     C     0.2142     0.4136     0.8726
A_1     C     0.9152     0.52     0.3346
A_1     C     0.1194     0.2523     0.8423
A_0     C     0.2995     0.1327     0.281
A_3     C     0.1436     0.7858     0.8295
A_3     C     0.1332     0.4871     0.3728
A_0     C     0.6488     0.4795     0.874
A_3     C     0.2063     0.2365     0.7321
A_1     C     0.8366     0.4086     0.5413
A_0     C     0.8683     0.9056     0.5762
A_0     C     0.8068     0.5214     0.1129
A_2     C     0.6131     0.5272     0.7948
A_0     C     0.092     0.7137     0.2599
A_1     C     0.9094     0.0098     0.1475
A_1     C     0.8942     0.1794     0.4502
A_2     C     0.8764     0.0211     0.1019
A_1     C     0.1097     0.9492     0.3572
A_1     C     0.456     0.4998     0.6751
A_0     C     0.6435     0.0887     0.6296
A_0     C     0.0405     0.7769     0.6397
A_3     C     0.5848     0.181     0.0364
A_1     C     0.4621     0.2092     0.5589
A_3     C     0.7709     0.9929     0.7202
A_0     C     0.0609     0.2056     0.0373
A_1     C     0.2904     0.1892     0.5468
A_0     C     0.9639     0.6647     0.9557
A_3     C     0.2709     0.4172     0.5426
A_2     C     0.4012     0.8539     0.1675
A_1     C     0.569     0.1951     0.2757
A_2     C     0.8102     0.8441     0.9962
A_2     C     0.2175     0.6411     0.2827
A_1     C     0.2674     0.8581     0.3585
A_1     C     0.7875     0.198     0.013
A_0     C     0.8368     0.4814     0.3678
A_2     C     0.276     0.3668     0.4873
A_0     C     0.8402     0.5755     0.9302
A_0     C     0.541     0.9267     0.381
A_1     C     0.5712     0.8682     0.2607
A_1     C     0.6758     0.3526     0.9461
A_1     C     0.776     0.662     0.0477
A_0     C     0.2741     0.806     0.5796
A_2     C     0.8094     0.7078     0.6378
A_1     C     0.1015     0.0485     0.8398
A_3     C     0.658     0.744     0.7279
A_3     C     0.9215     0.4036     0.8005
A_1     C     0.5716     0.4743     0.3796
A_1     C     0.0209     0.971     0.8821
A_2     C     0.0792     0.6516     0.5783
A_0     C     0.0898     0.6651     0.3853
A_1     C     0.1577     0.8566     0.8275
A_3     C     0.6037     0.5185     0.7924
A_2     C     0.0024     0.0202     0.3525
A_2     C     0.7181     0.1352     0.3951
A_1     C     0.1632     0.2593     0.9432
A_0     C     0.0542     0.576     0.0275
A_3     C     0.5181     0.7087     0.1365
A_2     C     0.2051     0.6279     0.3624
A_0     C     0.2533     0.7878     0.2473
A_0     C     0.5154     0.2465     0.8595
A_3     C     0.1947     0.3659     0.4147
A_3     C     0.498     0.0163     0.0971
A_0     C     0.4163     0.0613     0.3754
A_1     C     0.1987     0.068     0.0473
A_3     C     0.1854     0.7625     0.1605
A_3     C     0.833     0.4176     0.6472
A_1     C     0.66     0.9644     0.4072
A_3     C     0.0701     0.451     0.8314
A_1     C     0.2642     0.8825     0.1908
A_2     C     0.181     0.823     0.4077
A_1     C     0.0783     0.0062     0.0279
A_1     C     0.3719     0.5506     0.4478
A_1     C     0.8211     0.3393     0.0477
A_3     C     0.7936     0.9657     0.6692
A_1     C     0.7556     0.067     0.3995
A_2     C     0.0102     0.6354     0.984
A_3     C     0.2671     0.1305     0.8584
A_3     C     0.0015     0.0418     0.7593
A_1     C     0.9663     0.7303     0.3591
A_0     C     0.719     0.6748     0.4584
A_2     C     0.4773     0.5627     0.4289
A_3     C     0.8617     0.7371     0.6242
A_3     C     0.9036     0.9755     0.3227
A_0     C     0.7519     0.5808     0.6859
A_1     C     0.1378     0.3731     0.2255
A_1     C     0.7911     0.5493     0.0822
A_2     C     0.434     0.5404     0.5564
A_2     C     0.8845     0.0069     0.5111
A_0     C     0.2537     0.6912     0.2278
A_1     C     0.7126     0.7301     0.4503
A_1     C     0.3985     0.8697     0.5476
A_0     C     0.1892     0.4652     0.0028
A_3     C     0.7593     0.2938     0.0191
A_2     C     0.784     0.3206     0.0781
A_0     C     0.9401     0.9037     0.1329
A_0     C     0.3809     0.0574     0.0712
A_0     C     0.6845     0.2738     0.8803
A_3     C     0.5429     0.1022     0.916
A_1     C     0.7078     0.5957     0.4333
A_1     C     0.2714     0.33     0.5755
A_3     C     0.4798     0.5662     0.5672
A_0     C     0.0164     0.8397     0.2627
A_3     C     0.7293     0.3355     0.5844
A_3     C     0.0203     0.4225     0.2168
A_1     C     0.3768     0.3588     0.724
A_2     C     0.1888     0.598     0.951
A_3     C     0.1679     0.7981     0.9437
A_2     C     0.9989     0.7316     0.347
A_1     C     0.4058     0.553     0.3188
A_2     C     0.8035     0.4603     0.4487
A_3     C     0.3415     0.2146     0.4436
A_0     C     0.2019     0.1408     0.4138
A_3     C     0.1969     0.8715     0.0492
A_3     C     0.3084     0.4048     0.168
A_0     C     0.7814     0.8114     0.2488
A_3     C     0.9358     0.3563     0.3018
A_3     C     0.1458     0.1865     0.5059
A_3     C     0.9527     0.5814     0.5315
A_0     C     0.0005     0.8047     0.9276
A_2     C     0.9746     0.1311     0.0869
A_3     C     0.1908     0.8293     0.1731
A_2     C     0.783     0.0614     0.8193
A_1     C     0.4715     0.7986     0.2954
A_3     C     0.4411     0.1547     0.6707
A_0     C     0.2586     0.2168     0.9418
A_2     C     0.268     0.6074     0.1786
A_3     C     0.363     0.6987     0.3075
A_0     C     0.6821     0.1464     0.2486
A_1     C     0.5016     0.8553     0.5472
A_3     C     0.5971     0.0568     0.9708
A_1     C     0.1834     0.2079     0.678
A_2     C     0.5737     0.6758     0.0003
A_2     C     0.97     0.0997     0.7485
A_0     C     0.8124     0.5065     0.3729
A_1     C     0.8929     0.7704     0.3436
A_2     C     0.6643     0.174     0.5852
A_3     C     0.6909     0.0504     0.5935
A_2     C     0.6999     0.8221     0.8902
A_0     C     0.1303     0.2392     0.9734
A_3     C     0.9896     0.8747     0.6062
A_2     C     0.2664     0.8903     0.7591
A_0     C     0.2302     0.2999     0.5248
A_0     C     0.2084     0.3763     0.4131
A_0     C     0.9772     0.0722     0.2322
A_2     C     0.4516     0.1371     0.774
A_0     C     0.7676     0.2271     0.8963
A_3     C     0.9772     0.0166     0.9798
A_2     C     0.3701     0.8024     0.1292
A_2     C     0.0871     0.8542     0.1232
A_0     C     0.8309     0.6175     0.4437
A_2     C     0.5981     0.4785     0.9647
A_3     C     0.3277     0.0765     0.1323
A_0     C     0.8754     0.9111     0.0985
A_0     C     0.4874     0.0402     0.5367
A_3     C     0.8631     0.5148     0.9515
A_1     C     0.3924     0.2273     0.1546
A_0     C     0.124     0.3593     0.055
A_0     C     0.9182     0.0625     0.8536
A_1     C     0.9508     0.4903     0.3408
A_3     C     0.4013     0.3996     0.2637
A_2     C     0.5765     0.9825     0.8618
A_3     C     0.2286     0.9787     0.443
A_0     C     0.9628     0.5926     0.6167
A_2     C     0.4086     0.0408     0.0141
A_2     C     0.9218     0.7946     0.41
A_1     C     0.4678     0.8763     0.5221
A_1     C     0.7038     0.5575     0.0509
A_1     C     0.7301     0.2047     0.7218
A_2     C     0.0499     0.7505     0.6095
A_3     C     0.4541     0.2149     0.9897
A_2     C     0.5901     0.6436     0.793
A_1     C     0.0173     0.7573     0.2996
A_0     C     0.6599     0.5576     0.766
A_2     C     0.7616     0.709     0.6537
A_2     C     0.9723     0.813     0.5778
A_1     C     0.2691     0.8426     0.4072
A_3     C     0.0915     0.8389     0.2865
A_0     C     0.939     0.633     0.2973
A_3     C     0.9108     0.662     0.7037
A_1     C     0.1735     0.5547     0.0201
A_0     C     0.5891     0.5549     0.6177
A_3     C     0.2452     0.0549     0.2895
A_2     C     0.357     0.9825     0.7482
A_1     C     0.646     0.9501     0.5296
A_0     C     0.1087     0.1707     0.9414
A_1     C     0.1421     0.4982     0.4786
A_1     C     0.5509     0.469     0.5866
A_1     C     0.2318     0.1834     0.3059
A_0     C     0.6702     0.2764     0.9877
A_0     C     0.8655     0.9379     0.6132
A_1     C     0.417     0.6134     0.3399
A_3     C     0.7055     0.6623     0.0776
A_0     C     0.2509     0.6451     0.4724
A_3     C     0.8425     0.4169     0.8482
A_1     C     0.4533     0.6508     0.9187
A_0     C     0.3207     0.7286     0.9977
A_1     C     0.9699     0.61     0.4499
A_3     C     0.4178     0.6905     0.6932
A_1     C     0.1801     0.9249     0.8168
A_2     C     0.8533     0.6944     0.8543
A_0     C     0.0706     0.3473     0.1562
A_3     C     0.8734     0.8138     0.8256
A_0     C     0.1404     0.9868     0.3655
A_0     C     0.2824     0.8674     0.0268
A_2     C     0.0114     0.6921     0.2444
A_3     C     0.9145     0.377     0.9485
A_1     C     0.8445     0.1689     0.7723
A_2     C     0.2703     0.8542     0.1271
A_3     C     0.093     0.622     0.1242
A_0     C     0.1686     0.7953     0.2793
A_3     C     0.5324     0.0578     0.6523
A_2     C     0.4042     0.8469     0.1897
A_2     C     0.5924     0.44     0.6588
A_3     C     0.7807     0.9049     0.6535
A_2     C     0.8472     0.8376     0.1512
A_3     C     0.2259     0.7495     0.8889
A_3     C     0.9028     0.4324     0.6056
A_3     C     0.7756     0.2833     0.11
A_1     C     0.0374     0.3925     0.1913
A_1     C     0.9141     0.1847     0.701
A_2     C     0.9423     0.8539     0.6269
A_0     C     0.9775     0.1473     0.7002
A_1     C     0.5432     0.2134     0.8624
A_2     C     0.4735     0.6708     0.7979
A_0     C     0.6817     0.0039     0.3953
A_1     C     0.2497     0.9432     0.2306
A_1     C     0.3552     0.8293     0.3606
A_1     C     0.3009     0.7944     0.8604
A_2     C     0.6984     0.1985     0.7297
A_2     C     0.7701     0.1574     0.2204
A_0     C     0.4219     0.3595     0.2153
A_3     C     0.4804     0.497     0.5884
A_0     C     0.237     0.1897     0.724
A_3     C     0.1812     0.1803     0.9787
A_3     C     0.4886     0.0351     0.6734
A_3     C     0.4036     0.6022     0.2613
A_1     C     0.9152     0.7586     0.6469
A_2     C     0.4804     0.4592     0.322
A_3     C     0.9767     0.1993     0.1652
A_2     C     0.2148     0.9007     0.91
A_2     C     0.5018     0.619     0.2889
A_2     C     0.2521     0.661     0.375
A_1     C     0.268     0.3363     0.5121
A_2     C     0.5718     0.9818     0.5377
A_1     C     0.6701     0.1549     0.0204
A_0     C     0.5676     0.2292     0.5132
A_1     C     0.3026     0.1553     0.8822
A_3     C     0.8305     0.2453     0.1733
A_3     C     0.4282     0.8906     0.0973
A_0     C     0.4652     0.1647     0.6642
A_3     C     0.7424     0.6105     0.4649
A_1     C     0.9917     0.9429     0.8826
A_3     C     0.0115     0.0683     0.2187
A_3     C     0.1846     0.6983     0.4831
A_1     C     0.7011     0.8516     0.611
A_3     C     0.4547     0.5078     0.2895
A_2     C     0.9483     0.666     0.7673
A_2     C     0.2245     0.4288     0.503
A_0     C     0.0533     0.9492     0.4924
A_1     C     0.0986     0.3633     0.5178
A_3     C     0.44     0.5143     0.2703
A_1     C     0.6043     0.6545     0.9683
A_3     C     0.2069     0.9148     0.8215
A_0     C     0.4514     0.8335     0.7401
A_0     C     0.0754     0.3518     0.2398
A_3     C     0.8475     0.4121     0.6974
A_3     C     0.0587     0.3333     0.2758
A_3     C     0.8719     0.1652     0.6324
A_2     C     0.6123     0.9829     0.4351
A_3     C     0.9634     0.8773     0.4894
A_1     C     0.7287     0.3823     0.7943
A_3     C     0.9304     0.0953     0.597
A_1     C     0.1236     0.4632     0.1869
A_2     C     0.5906     0.0303     0.7694
A_3     C     0.4236     0.1698     0.9155
A_3     C     0.5171     0.8056     0.2035
A_3     C     0.933     0.2498     0.6002
A_1     C     0.8096     0.036     0.3695
A_2     C     0.6692     0.5432     0.7988
A_2     C     0.4722     0.7968     0.8888
A_3     C     0.8941     0.1955     0.4779
A_3     C     0.113     0.7728     0.944
A_1     C     0.2096     0.8404     0.1682
A_1     C     0.2614     0.0062     0.568
A_3     C     0.2243     0.5504     0.1597
A_1     C     0.8277     0.6626     0.2987
A_3     C     0.0065     0.2282     0.5098
A_0     C     0.9435     0.2686     0.1937
A_2     C     0.2612     0.536     0.7292
A_3     C     0.7203     0.9502     0.1915
A_0     C     0.1084     0.9753     0.6886
A_0     C     0.8882     0.453     0.9183
A_2     C     0.213     0.7158     0.4994
A_0     C     0.4912     0.7796     0.2162
A_2     C     0.1294     0.1502     0.6965
A_1     C     0.7142     0.0948     0.6483
A_1     C     0.491     0.9291     0.7853
A_2     C     0.7294     0.3172     0.7989
A_1     C     0.4372     0.7415     0.3668
A_0     C     0.2892     0.576     0.8512
A_0     C     0.3609     0.5131     0.2133
A_2     C     0.8153     0.7537     0.5536
A_2     C     0.927     0.089     0.618
A_1     C     0.179     0.61     0.2522
A_3     C     0.9206     0.8218     0.6873
A_2     C     0.3211     0.1057     0.319
A_3     C     0.8551     0.3514     0.3287
A_1     C     0.0517     0.6291     0.5512
A_2     C     0.5934     0.6736     0.6426
A_2     C     0.6488     0.9341     0.6556
A_0     C     0.2329     0.2722     0.6164
A_2     C     0.2008     0.2089     0.5812
A_3     C     0.1887     0.508     0.7573
A_1     C     0.069     0.5143     0.2929
A_2     C     0.5626     0.5259     0.9691
A_1     C     0.9134     0.4381     0.8607
A_2     C     0.7483     0.0846     0.9591
A_0     C     0.751     0.0908     0.6637
A_0     C     0.5099     0.0915     0.4273
A_1     C     0.5169     0.6044     0.9101
A_2     C     0.1367     0.5979     0.5524
A_1     C     0.0502     0.3428     0.7066
A_0     C     0.0806     0.7173     0.5637
A_0     C     0.079     0.7201     0.7509
A_1     C     0.7377     0.2514     0.5941
A_2     C     0.3354     0.7102     0.3462
A_3     C     0.0401     0.5198     0.3695
A_3     C     0.7335     0.1046     0.4192
A_2     C     0.3344     0.8533     0.3044
A_3     C     0.2382     0.8728     0.1462
A_1     C     0.9652     0.4371     0.7429
A_2     C     0.0965     0.142     0.6408
A_0     C     0.8124     0.7215     0.0032
A_2     C     0.7188     0.7695     0.7656
A_0     C     0.7313     0.6626     0.1591
A_1     C     0.6829     0.3703     0.1438
A_1     C     0.2184     0.8797     0.8165
A_2     C     0.9406     0.8401     0.5777
A_2     C     0.1486     0.7791     0.432
A_1     C     0.8863     0.385     0.196
A_2     C     0.8274     0.1506     0.1127
A_0     C     0.2501     0.1275     0.2749
A_0     C     0.2143     0.3634     0.577
A_2     C     0.8724     0.1319     0.9322
A_1     C     0.5664     0.8164     0.5179
A_2     C     0.5523     0.0515     0.6262
A_0     C     0.6433     0.4399     0.7278
A_3     C     0.674     0.3631     0.8033
A_0     C     0.4339     0.5246     0.9587
A_3     C     0.9435     0.9032     0.1789
A_0     C     0.7984     0.2537     0.0781
A_0     C     0.6529     0.5618     0.8097
A_2     C     0.1013     0.2631     0.1091
A_1     C     0.0713     0.4043     0.3222
A_1     C     0.9703     0.3414     0.7352
A_1     C     0.2668     0.9704     0.2278
A_2     C     0.2386     0.2993     0.1502
A_0     C     0.5864     0.1753     0.631
A_0     C     0.4889     0.2196     0.6033
A_0     C     0.4248     0.2448     0.6776
A_3     C     0.73     0.2646     0.2724
A_3     C     0.2774     0.6762     0.9039
A_2     C     0.8609     0.302     0.707
A_1     C     0.4078     0.477     0.2455
A_0     C     0.592     0.833     0.2502
A_2     C     0.7619     0.1674     0.5119
A_0     C     0.1505     0.1286     0.1301
A_3     C     0.6462     0.1471     0.3674
A_3     C     0.4662     0.9044     0.9085
A_2     C     0.6536     0.2741     0.2967
A_3     C     0.1183     0.7992     0.6926
A_2     C     0.46     0.2966     0.4163
A_2     C     0.7007     0.4607     0.7825
A_0     C     0.7506     0.7849     0.9189
A_1     C     0.108     0.8654     0.7761
A_1     C     0.5084     0.9519     0.9033
A_3     C     0.174     0.6852     0.3613
A_0     C     0.3495     0.8635     0.0362
A_1     C     0.3673     0.6539     0.3657
A_3     C     0.4185     0.7975     0.3631
A_2     C     0.7579     0.7576     0.3291
A_1     C     0.3807     0.8344     0.4541
A_0     C     0.4348     0.0365     0.3308
A_2     C     0.1545     0.4172     0.3767
A_3     C     0.2673     0.0366     0.5714
A_2     C     0.5     0.5223     0.6242
A_0     C     0.2105     0.8366     0.0195
A_1     C     0.0267     0.9251     0.2925
A_3     C     0.529     0.2747     0.491
A_1     C     0.3814     0.1363     0.9114
A_0     C     0.5953     0.4781     0.4017
A_3     C     0.3315     0.2706     0.2382
A_2     C     0.7054     0.7898     0.9227
A_3     C     0.8127     0.2236     0.9895
A_2     C     0.6377     0.7715     0.96
A_2     C     0.1938     0.3612     0.4961
A_1     C     0.2233     0.2865     0.6035
A_2     C     0.7147     0.496     0.8088
A_0     C     0.1728     0.4562     0.8853
A_3     C     0.6656     0.1293     0.9999
A_3     C     0.882     0.9634     0.0611
A_0     C     0.2649     0.5982     0.8124
A_3     C     0.1161     0.2437     0.8649
A_1     C     0.5934     0.113     0.7115
A_3     C     0.2042     0.9659     0.1177
A_1     C     0.975     0.3518     0.7339
A_3     C     0.6791     0.4908     0.7696
A_1     C     0.3953     0.6072     0.5714
A_3     C     0.5615     0.4343     0.3682
A_1     C     0.1568     0.8222     0.7514
A_2     C     0.9126     0.1544     0.9715
A_3     C     0.0936     0.3705     0.6358
A_2     C     0.6315     0.0682     0.4318
A_2     C     0.3292     0.5528     0.815
A_0     C     0.3814     0.3189     0.0841
A_0     C     0.6323     0.0098     0.5888
A_0     C     0.602     0.9597     0.2084
A_1     C     0.0309     0.5971     0.0368
A_2     C     0.4098     0.7727     0.3325
A_1     C     0.7493     0.2619     0.4026
A_1     C     0.022     0.9149     0.1899
A_3     C     0.6842     0.9002     0.5254
A_2     C     0.2752     0.5431     0.5118
A_1     C     0.1972     0.0909     0.4898
A_3     C     0.7193     0.152     0.3352
A_2     C     0.3032     0.8382     0.7937
A_0     C     0.09     0.268     0.5494
A_0     C     0.0111     0.5264     0.4939
A_3     C     0.6311     0.9208     0.9809
A_0     C     0.617     0.8724     0.2679
A_2     C     0.7538     0.7146     0.2528
A_3     C     0.9315     0.7962     0.6279
A_3     C     0.696     0.8185     0.9548
A_3     C     0.9592     0.1899     0.1725
A_2     C     0.4111     0.3878     0.3188
A_2     C     0.6144     0.9182     0.4554
A_2     C     0.8932     0.8578     0.4115
A_2     C     0.5121     0.0629     0.7854
A_0     C     0.5445     0.9076     0.0123
A_0     C     0.4079     0.3772     0.2089
A_2     C     0.9518     0.4283     0.0819
A_2     C     0.5529     0.9082     0.8726
A_0     C     0.7217     0.2219     0.2457
A_2     C     0.7953     0.9927     0.0788
A_0     C     0.2913     0.6056     0.5258
A_0     C     0.8677     0.9341     0.9779
A_3     C     0.1075     0.2985     0.3327
A_3     C     0.0103     0.5762     0.8208
A_1     C     0.3109     0.6546     0.0256
A_1     C     0.3608     0.4074     0.3532
A_1     C     0.2931     0.3249     0.4188
A_2     C     0.0066     0.7141     0.6035
A_1     C     0.9921     0.1309     0.4145
A_1     C     0.935     0.2729     0.1444
A_3     C     0.3721     0.0935     0.2679
A_3     C     0.2225     0.7625     0.8852
A_1     C     0.8048     0.9093     0.4355
A_1     C     0.5957     0.8682     0.9648
A_0     C     0.1654     0.5262     0.3358
A_3     C     0.7358     0.9865     0.1333
A_3     C     0.0047     0.5774     0.858
A_3     C     0.7202     0.3061     0.3547
A_1     C     0.1994     0.7119     0.461
A_0     C     0.0773     0.6207     0.6346
A_1     C     0.5132     0.3955     0.5213
A_0     C     0.9879     0.341     0.1705
A_2     C     0.5778     0.2027     0.4206
A_3     C     0.4044     0.2382     0.9965
A_0     C     0.4768     0.9989     0.4891
A_3     C     0.7946     0.1516     0.8094
A_2     C     0.7081     0.3263     0.9232
A_0     C     0.099     0.3419     0.9084
A_3     C     0.7536     0.1521     0.353
A_1     C     0.5377     0.4445     0.7135
A_3     C     0.5989     0.3096     0.8875
A_2     C     0.2681     0.296     0.1582
A_0     C     0.6684     0.1039     0.1227
A_3     C     0.8912     0.1288     0.6508
A_3     C     0.779     0.8547     0.8508
A_3     C     0.0736     0.1496     0.9339
A_1     C     0.2538     0.6461     0.5899
A_3     C     0.1866     0.7712     0.8453
A_1     C     0.5733     0.0381     0.2605
A_0     C     0.6504     0.1774     0.9771
A_0     C     0.4217     0.2859     0.9407
A_0     C     0.0528     0.0367     0.0283
A_2     C     0.787     0.7821     0.9785
A_0     C     0.8584     0.9087     0.2941
A_1     C     0.4946     0.5574     0.0508
A_0     C     0.9632     0.5706     0.1247
A_1     C     0.3666     0.6372     0.0275
A_2     C     0.1882     0.36     0.7108
A_2     C     0.1147     0.4799     0.0041
A_1     C     0.7055     0.8443     0.5959
A_1     C     0.8171     0.5445     0.0151
A_2     C     0.5001     0.036     0.5305
A_2     C     0.5764     0.9031     0.9316
A_1     C     0.1955     0.8439     0.8797
A_3     C     0.0482     0.105     0.6816
A_2     C     0.7965     0.603     0.5039
A_0     C     0.8117     0.2543     0.2028
A_3     C     0.1513     0.0285     0.1759
A_2     C     0.5874     0.8399     0.497
A_3     C     0.4059     0.2713     0.4396
A_3     C     0.7984     0.3922     0.4922
A_0     C     0.1215     0.9078     0.8471
A_3     C     0.3732     0.2941     0.9892
A_2     C     0.3756     0.6642     0.2071
A_1     C     0.4814     0.1789     0.843
A_3     C     0.4098     0.7611     0.0175
A_3     C     0.7526     0.3625     0.8166
A_2     C     0.2779     0.8601     0.9815
A_1     C     0.7027     0.6838     0.889
A_0     C     0.9923     0.2469     0.1133
A_3     C     0.5139     0.0965     0.7379
A_1     C     0.7217     0.5199     0.8612
A_1     C     0.9665     0.1905     0.8404
A_2     C     0.5064     0.194     0.3295
A_1     C     0.8163     0.1739     0.2107
A_1     C     0.8281     0.37     0.1715
A_1     C     0.6908     0.5023     0.0697
A_0     C     0.7169     0.7789     0.8044
A_1     C     0.3527     0.3023     0.9737
A_3     C     0.4717     0.665     0.5112
A_0     C     0.6208     0.6632     0.309
A_1     C     0.8911     0.9217     0.0381
A_1     C     0.13     0.2798     0.2678
A_0     C     0.8008     0.4136     0.3392
A_2     C     0.9824     0.3506     0.9364
A_0     C     0.4608     0.3219     0.8212
A_3     C     0.8811     0.3187     0.2033
A_2     C     0.839     0.0373     0.0206
A_1     C     0.0979     0.7545     0.3598
A_2     C     0.2141     0.078     0.9059
A_3     C     0.0362     0.3507     0.7666
A_3     C     0.2645     0.8202     0.3432
A_0     C     0.4573     0.5583     0.641
A_3     C     0.7643     0.6727     0.675
A_1     C     0.5807     0.987     0.3996
A_2     C     0.2013     0.3616     0.6945
A_0     C     0.2058     0.8252     0.782
A_0     C     0.1925     0.7214     0.2079
A_2     C     0.4713     0.0684     0.3039
A_0     C     0.0986     0.4166     0.0758
A_3     C     0.8328     0.1766     0.2225
A_2     C     0.8983     0.1697     0.2473
A_1     C     0.2426     0.732     0.03
A_3     C     0.1396     0.6306     0.9595
A_0     C     0.751     0.4875     0.1468
A_0     C     0.0958     0.9377     0.5843
A_1     C     0.8568     0.9987     0.7913
A_1     C     0.8282     0.9568     0.8119
A_2     C     0.0143     0.4785     0.8873
A_0     C     0.8895     0.0995     0.7931
A_1     C     0.6634     0.4669     0.9971
A_1     C     0.0957     0.1035     0.4387
A_3     C     0.6426     0.6903     0.2962
A_3     C     0.7563     0.6315     0.3518
A_2     C     0.5643     0.1688     0.9987
A_2     C     0.7857     0.4643     0.4369
A_0     C     0.1198     0.0805     0.1468
A_3     C     0.9504     0.9174     0.1322
A_1     C     0.2722     0.3546     0.3666
A_0     C     0.9039     0.8706     0.3663
A_2     C     0.4631     0.8043     0.6867
A_2     C     0.0492     0.2515     0.8394
A_3     C     0.0966     0.6723     0.8034
A_0     C     0.8311     0.9494     0.5612
A_1     C     0.6035     0.9139     0.9797
A_3     C     0.494     0.972     0.1124
A_3     C     0.6444     0.0182     0.7229
A_3     C     0.2842     0.7744     0.0211
A_0     C     0.4159     0.9154     0.224
A_2     C     0.9344     0.6764     0.5038
A_3     C     0.5635     0.2414     0.9567
A_2     C     0.2709     0.8447     0.9956
A_2     C     0.9237     0.9524     0.3835
A_3     C     0.8725     0.2073     0.5149
A_0     C     0.1261     0.0652     0.4526
A_1     C     0.8768     0.8537     0.2323
A_3     C     0.5495     0.6569     0.3332
A_2     C     0.9268     0.6546     0.9703
A_3     C     0.8763     0.2436     0.4499
A_0     C     0.0745     0.581     0.9608
A_2     C     0.9153     0.531     0.6631
A_2     C     0.0169     0.4797     0.399
A_1     C     0.9939     0.2526     0.2786
A_1     C     0.58     0.6568     0.0374
A_1     C     0.8448     0.8812     0.689
A_2     C     0.3735     0.3278     0.3335
A_0     C     0.4886     0.8741     0.308
A_1     C     0.5036     0.1976     0.4149
A_0     C     0.0036     0.1423     0.9073
A_3     C     0.7275     0.2704     0.0899
A_2     C     0.735     0.6189     0.2171
A_0     C     0.4963     0.2011     0.2959
A_3     C     0.5968     0.442     0.7786
A_3     C     0.5318     0.966     0.1254
A_1     C     0.819     0.1368     0.842
A_1     C     0.1082     0.5241     0.307
A_3     C     0.1995     0.3881     0.0417
A_3     C     0.9308     0.2779     0.2666
A_3     C     0.0544     0.4218     0.5708
A_1     C     0.1183     0.2451     0.0185
A_2     C     0.971     0.6403     0.806
A_3     C     0.1322     0.3168     0.1613
A_0     C     0.1767     0.669     0.5922
A_3     C     0.7716     0.3711     0.2215
A_1     C     0.9888     0.8351     0.496
A_0     C     0.3614     0.9301     0.6841
A_2     C     0.651     0.4855     0.8989
A_1     C     0.4782     0.497     0.8912
A_1     C     0.3451     0.8584     0.7922
A_1     C     0.3238     0.0646     0.0868
A_0     C     0.9989     0.5235     0.1922
A_2     C     0.872     0.2196     0.1886
A_2     C     0.2178     0.7278     0.9816
A_2     C     0.6592     0.4909     0.1596
A_0     C     0.5307     0.686     0.6545
A_3     C     0.4008     0.7167     0.2465
A_1     C     0.9349     0.1545     0.9456
A_3     C     0.5928     0.4328     0.9099
A_2     C     0.8154     0.8924     0.3355
A_1     C     0.8695     0.9978     0.9508
A_3     C     0.494     0.8278     0.1709
A_3     C     0.5661     0.3624     0.6294
A_2     C     0.1494     0.8254     0.9451
A_2     C     0.9094     0.6187     0.9139
A_3     C     0.756     0.4524     0.5942
A_3     C     0.2064     0.9889     0.6693
A_1     C     0.4469     0.188     0.4737
A_3     C     0.5284     0.3222     0.5988
A_3     C     0.5036     0.0124     0.8473
A_0     C     0.1234     0.5613     0.8754
A_3     C     0.283     0.2171     0.6226
A_1     C     0.0333     0.8073     0.8355
A_2     C     0.307     0.3036     0.1968
A_3     C     0.8696     0.9461     0.5354
A_2     C     0.4155     0.4606     0.0667
A_3     C     0.2609     0.7844     0.8503
A_0     C     0.4747     0.1196     0.6743
A_0     C     0.0292     0.723     0.8473
A_1     C     0.3677     0.5664     0.2909
A_2     C     0.9728     0.6854     0.3586
A_2     C     0.44     0.8528     0.0031
A_1     C     0.8714     0.9328     0.8289
A_1     C     0.6036     0.1565     0.1649
A_2     C     0.0317     0.86     0.593
A_3     C     0.2882     0.8602     0.3819
A_2     C     0.0433     0.1246     0.3826
A_1     C     0.9794     0.795     0.6613
A_0     C     0.8314     0.7415     0.4238
A_3     C     0.0887     0.9247     0.3711
A_3     C     0.907     0.8008     0.8001
A_0     C     0.8111     0.0993     0.0513
A_1     C     0.299     0.6038     0.7882
A_2     C     0.6165     0.2769     0.5066
A_3     C     0.5133     0.3624     0.3067
A_0     C     0.8931     0.1564     0.5186
A_3     C     0.8355     0.859     0.5233
A_2     C     0.9966     0.9241     0.6442
A_2     C     0.4714     0.2891     0.8084
A_2     C     0.9435     0.3193     0.5624
A_0     C     0.3013     0.0048     0.8274
A_0     C     0.807     0.48     0.9529
A_0     C     0.5274     0.7154     0.1343
A_0     C     0.448     0.2339     0.5667
A_1     C     0.102     0.6018     0.4164
A_1     C     0.4154     0.0092     0.3691
A_0     C     0.0277     0.0242     0.9634
A_2     C     0.5836     0.2269     0.2074
A_2     C     0.9342     0.597     0.0673
A_2     C     0.0703     0.983     0.9358
A_3     C     0.9527     0.9711     0.3404
A_1     C     0.3828     0.2815     0.5234
A_0     C     0.4008     0.1512     0.7826
A_0     C     0.6127     0.2666     0.905
A_1     C     0.8402     0.5752     0.4431
A_0     C     0.5768     0.9471     0.2383
A_0     C     0.0835     0.1596     0.741
A_2     C     0.8358     0.7735     0.4427
A_0     C     0.5788     0.3278     0.8665
A_0     C     0.1153     0.8007     0.9744
A_0     C     0.1508     0.7142     0.5236
A_0     C     0.0172     0.2943     0.4828
A_3     C     0.0992     0.4711     0.3709
A_1     C     0.9361     0.2856     0.6716
A_1     C     0.4781     0.5668     0.9369
A_2     C     0.6315     0.3556     0.4762
A_2     C     0.2348     0.3117     0.5255
A_3     C     0.8351     0.7373     0.6729
A_3     C     0.5813     0.7354     0.5218
A_3     C     0.3946     0.7061     0.1903
A_2     C     0.1498     0.7505     0.1847
A_3     C     0.1422     0.3702     0.4604
A_3     C     0.4536     0.352     0.0446
A_0     C     0.1774     0.7132     0.5606
A_1     C     0.5276     0.172     0.7538
A_0     C     0.0836     0.292     0.6792
A_1     C     0.7444     0.4545     0.8061
A_2     C     0.6445     0.2427     0.3939
A_2     C     0.9884     0.2199     0.1927
A_2     C     0.467     0.3747     0.4991
A_0     C     0.2098     0.1421     0.8618
A_3     C     0.5835     0.3059     0.561
A_1     C     0.0286     0.8516     0.095
A_1     C     0.9498     0.9368     0.2958
A_2     C     0.0554     0.3797     0.5719
A_1     C     0.4059     0.5704     0.2051
A_2     C     0.8669     0.2584     0.9679
A_3     C     0.9191     0.9149     0.1753
A_0     C     0.9259     0.8516     0.8405
A_3     C     0.2861     0.8473     0.0379
A_2     C     0.9823     0.3661     0.714
A_0     C     0.6728     0.9126     0.2472
A_3     C     0.2714     0.2745     0.2313
A_3     C     0.5935     0.2783     0.3263
A_2     C     0.8986     0.4899     0.3494
A_2     C     0.4801     0.7544     0.1259
A_0     C     0.3587     0.525     0.0339
A_3     C     0.8246     0.8716     0.647
A_2     C     0.7451     0.6216     0.2788
A_1     C     0.5091     0.953     0.8357
A_3     C     0.9977     0.6499     0.3065
A_0     C     0.9181     0.4154     0.7749
A_0     C     0.8165     0.0711     0.3877
A_1     C     0.0284     0.5375     0.3097
A_3     C     0.6096     0.5194     0.7341
A_2     C     0.7353     0.0011     0.4404
A_2     C     0.0711     0.7062     0.9757
A_1     C     0.9008     0.3209     0.5336
A_3     C     0.95     0.4408     0.3181
A_0     C     0.4442     0.0209     0.5471
A_1     C     0.1438     0.1283     0.9899
A_3     C     0.0367     0.3757     0.6737
A_3     C     0.8434     0.5784     0.2184
A_1     C     0.6029     0.2965     0.1111
A_3     C     0.7528     0.4411     0.0741
A_3     C     0.1105     0.4524     0.5354
A_0     C     0.8014     0.4037     0.5895
A_2     C     0.5514     0.2526     0.4806
A_1     C     0.3442     0.9395     0.7556
A_0     C     0.8149     0.2727     0.91
A_2     C     0.3517     0.973     0.983
A_3     C     0.5254     0.9998     0.9265
A_3     C     0.8082     0.4693     0.3725
A_3     C     0.2083     0.787     0.6446
A_1     C     0.191     0.747     0.8499
A_0     C     0.7011     0.9582     0.1847
A_3     C     0.7778     0.9972     0.4532
A_2     C     0.3546     0.3763     0.0805
A_0     C     0.356     0.7048     0.1252
A_2     C     0.1522     0.7407     0.1039
A_2     C     0.3593     0.7695     0.4653
A_0     C     0.6511     0.5712     0.5668
A_3     C     0.6145     0.4708     0.6741
A_3     C     0.0606     0.7861     0.7711
A_2     C     0.4682     0.7091     0.1961
A_3     C     0.3881     0.5064     0.7942
A_0     C     0.403     0.5609     0.948
A_3     C     0.2896     0.3742     0.2274
A_3     C     0.9566     0.8701     0.5759
A_1     C     0.7702     0.5594     0.4689
A_2     C     0.7844     0.6012     0.5446
A_2     C     0.9386     0.8635     0.0753
A_1     C     0.9396     0.2047     0.054
A_1     C     0.5506     0.6846     0.4234
A_2     C     0.3908     0.6655     0.8838
A_3     C     0.3815     0.1674     0.6335
A_2     C     0.8891     0.1393     0.7308
A_0     C     0.236     0.3426     0.4362
A_2     C     0.4974     0.6745     0.0861
A_1     C     0.9481     0.9701     0.1424
A_2     C     0.794     0.3201     0.2983
A_1     C     0.4358     0.5684     0.6935
A_3     C     0.1466     0.289     0.9326
A_3     C     0.6634     0.7246     0.0157
A_2     C     0.8785     0.0795     0.0863
A_1     C     0.1197     0.0394     0.7739
A_0     C     0.9655     0.6028     0.7054
A_1     C     0.3686     0.1711     0.873
A_1     C     0.5851     0.2072     0.7705
A_2     C     0.2242     0.7181     0.387
A_0     C     0.7119     0.3479     0.9944
A_1     C     0.6685     0.1063     0.0186
A_1     C     0.1866     0.9179     0.0215
A_3     C     0.7195     0.487     0.4257
A_1     C     0.1797     0.4352     0.7975
A_1     C     0.2212     0.3689     0.2153
A_1     C     0.6755     0.5752     0.8596
A_1     C     0.1871     0.5017     0.4084
A_3     C     0.9829     0.6233     0.3549
A_0     C     0.3518     0.8093     0.285
A_3     C     0.5256     0.9665     0.4833
A_1     C     0.3316     0.7244     0.1819
A_2     C     0.1233     0.2724     0.8831
A_3     C     0.6209     0.0733     0.1885
A_1     C     0.8513     0.4607     0.2211
A_3     C     0.0597     0.0171     0.9231
A_3     C     0.3005     0.3029     0.6125
A_2     C     0.796     0.9404     0.8537
A_0     C     0.6497     0.4818     0.3448
A_2     C     0.0084     0.3805     0.2414
A_0     C     0.222     0.375     0.9936
A_1     C     0.0864     0.9367     0.3285
A_3     C     0.699     0.8569     0.0696
A_0     C     0.1967     0.2416     0.4973
A_1     C     0.1453     0.3425     0.2585
A_2     C     0.5899     0.7458     0.1661
A_2     C     0.6289     0.4384     0.6958
A_0     C     0.6391     0.1575     0.4769
A_3     C     0.0555     0.721     0.2832
A_3     C     0.5768     0.3079     0.366
A_0     C     0.9696     0.0994     0.1152
A_3     C     0.4345     0.5964     0.8437
A_3     C     0.4481     0.7709     0.6999
A_1     C     0.8293     0.6577     0.7879
A_3     C     0.1331     0.4281     0.5988
A_2     C     0.6461     0.7796     0.0624
A_1     C     0.5431     0.5536     0.1588
A_1     C     0.0708     0.1927     0.3168
A_2     C     0.3881     0.7731     0.479
A_1     C     0.3505     0.0426     0.716
A_0     C     0.2321     0.1302     0.2019
A_1     C     0.0674     0.0971     0.0837
A_1     C     0.5772     0.0818     0.8028
A_2     C     0.2387     0.2042     0.0318
A_2     C     0.0572     0.8319     0.1427
A_0     C     0.3569     0.5072     0.0517
A_3     C     0.8274     0.4607     0.8446
A_0     C     0.3003     0.2452     0.9958
A_3     C     0.0976     0.2656     0.7135
A_2     C     0.9538     0.1361     0.0688
A_1     C     0.5728     0.3321     0.0832
A_1     C     0.9451     0.8095     0.2119
A_2     C     0.4439     0.4496     0.5476
A_3     C     0.8061     0.5851     0.7124
A_3     C     0.2054     0.2128     0.1124
A_3     C     0.1769     0.6481     0.3206
A_2     C     0.5033     0.0503     0.8475
A_3     C     0.2158     0.405     0.9474
A_1     C     0.8951     0.9192     0.7687
A_2     C     0.2448     0.7797     0.9576
A_2     C     0.9242     0.521     0.9048
A_0     C     0.9463     0.1765     0.1705
A_2     C     0.0479     0.4005     0.9445
A_1     C     0.4144     0.6793     0.7464
A_1     C     0.5381     0.7594     0.8853
A_1     C     0.5404     0.5142     0.5352
A_3     C     0.6353     0.3991     0.3752
A_0     C     0.5101     0.4779     0.1656
A_1     C     0.3833     0.0634     0.4873
A_0     C     0.6251     0.6087     0.4858
A_0     C     0.7479     0.7404     0.0456
A_0     C     0.1345     0.0215     0.8002
A_3     C     0.9024     0.7093     0.1369
A_2     C     0.7058     0.824     0.3302
A_1     C     0.941     0.2006     0.8469
A_1     C     0.2704     0.1059     0.9249
A_0     C     0.8205     0.473     0.0564
A_3     C     0.7356     0.5515     0.3627
A_0     C     0.472     0.3985     0.4381
A_3     C     0.4699     0.1383     0.7443
A_0     C     0.1569     0.1533     0.5777
A_0     C     0.1954     0.9968     0.2946
A_3     C     0.6135     0.4351     0.0531
A_0     C     0.9914     0.3827     0.679
A_0     C     0.8328     0.3558     0.5326
A_3     C     0.3099     0.5136     0.516
A_2     C     0.746     0.0123     0.8254
A_0     C     0.3753     0.5989     0.5314
A_0     C     0.2112     0.0663     0.3017
A_0     C     0.0588     0.0849     0.2704
A_1     C     0.19     0.1981     0.8733
A_3     C     0.56     0.9371     0.1004
A_3     C     0.2786     0.6526     0.8056
A_1     C     0.5268     0.5562     0.6002
A_1     C     0.8579     0.256     0.5647
A_1     C     0.6518     0.7175     0.5958
A_3     C     0.5845     0.8835     0.6749
A_1     C     0.7219     0.3562     0.1229
A_3     C     0.6866     0.9758     0.6462
A_0     C     0.7564     0.7427     0.8225
A_1     C     0.4318     0.6904     0.1555
A_3     C     0.4593     0.8662     0.9734
A_1     C     0.6419     0.8772     0.4855
A_1     C     0.2994     0.8314     0.2972
A_1     C     0.2316     0.0429     0.0864
A_3     C     0.6555     0.1661     0.6709
A_3     C     0.5758     0.1844     0.6277
A_3     C     0.1012     0.0055     0.9783
A_1     C     0.7628     0.1975     0.3811
A_3     C     0.8244     0.7705     0.7533
A_3     C     0.5347     0.1685     0.5525
A_0     C     0.8928     0.4866     0.0723
A_0     C     0.4837     0.1223     0.235
A_1     C     0.9394     0.4754     0.0361
A_2     C     0.4424     0.4381     0.0345
A_2     C     0.4862     0.0027     0.9273
A_1     C     0.0366     0.7221     0.1004
A_2     C     0.6434     0.9742     0.1247
A_2     C     0.8068     0.2871     0.4647
A_1     C     0.6315     0.627     0.1067
A_3     C     0.8586     0.9286     0.3505
A_2     C     0.7334     0.3272     0.8534
A_1     C     0.3939     0.1369     0.7908
A_3     C     0.5076     0.9381     0.6391
A_0     C     0.2205     0.7338     0.4046
A_3     C     0.8657     0.8215     0.9826
A_1     C     0.3426     0.2276     0.7015
A_1     C     0.9621     0.5385     0.793
A_3     C     0.3538     0.4255     0.2963
A_2     C     0.0226     0.6971     0.3492
A_3     C     0.9458     0.1017     0.6181
A_1     C     0.4442     0.1173     0.7946
A_3     C     0.8017     0.7236     0.7116
A_3     C     0.4483     0.0367     0.0537
A_2     C     0.8187     0.2156     0.712
A_1     C     0.6209     0.5814     0.208
A_0     C     0.5335     0.1215     0.9954
A_3     C     0.5654     0.6299     0.2604
A_1     C     0.1911     0.1144     0.1499
A_2     C     0.9001     0.7271     0.8397
A_2     C     0.4837     0.5588     0.6185
A_1     C     0.2816     0.6416     0.9763
A_1     C     0.6763     0.4718     0.9848
A_3     C     0.7546     0.9911     0.8072
A_3     C     0.9259     0.5883     0.6423
A_2     C     0.5748     0.7798     0.3895
A_3     C     0.1594     0.2886     0.9249
A_2     C     0.9289     0.061     0.2683
A_0     C     0.59     0.4392     0.6945
A_2     C     0.5322     0.6756     0.2146
A_1     C     0.1507     0.425     0.1932
A_1     C     0.3084     0.5232     0.3196
A_3     C     0.8418     0.974     0.4031
A_0     C     0.2298     0.6995     0.492
A_3     C     0.8472     0.9924     0.7666
A_1     C     0.5817     0.28     0.9793
A_1     C     0.6916     0.9999     0.6705
A_0     C     0.4113     0.4948     0.163
A_0     C     0.0304     0.3035     0.5829
A_0     C     0.8484     0.6284     0.39
A_3     C     0.5483     0.5283     0.1787
A_1     C     0.8149     0.9943     0.2017
A_0     C     0.5938     0.1884     0.3822
A_1     C     0.457     0.516     0.2568
A_3     C     0.462     0.311     0.2079
A_1     C     0.5801     0.6397     0.0798
A_3     C     0.9453     0.7988     0.9075
A_1     C     0.423     0.7253     0.6643
A_3     C     0.7684     0.4137     0.1236
A_3     C     0.4552     0.0594     0.1668
A_1     C     0.0948     0.2401     0.3922
A_1     C     0.0991     0.0525     0.9932
A_3     C     0.7901     0.3111     0.642
A_0     C     0.9331     0.8716     0.4526
A_2     C     0.7531     0.5469     0.0787
A_0     C     0.1431     0.6969     0.6561
A_1     C     0.0839     0.0611     0.0646
A_2     C     0.2715     0.3091     0.3455
A_0     C     0.0335     0.749     0.5787
A_2     C     0.7261     0.471     0.1065
A_2     C     0.3382     0.3793     0.2835
A_0     C     0.781     0.8171     0.7283
A_0     C     0.1396     0.5552     0.9139
A_3     C     0.9444     0.9528     0.1938
A_0     C     0.4611     0.7791     0.3843
A_0     C     0.1826     0.4678     0.5777
A_2     C     0.2742     0.6372     0.3983
A_2     C     0.9893     0.9423     0.1801
A_2     C     0.115     0.8291     0.3326
A_2     C     0.1364     0.0886     0.3688
A_0     C     0.3358     0.6251     0.1748
A_2     C     0.7546     0.9386     0.9229
A_3     C     0.548     0.5716     0.8108
A_0     C     0.4916     0.273     0.1776
A_2     C     0.1551     0.803     0.6052
A_0     C     0.6123     0.3698     0.1384
A_3     C     0.4065     0.7722     0.8847
A_0     C     0.7209     0.1857     0.1714
A_1     C     0.4527     0.75     0.1743
A_3     C     0.822     0.7992     0.5605
A_1     C     0.9382     0.5995     0.8372
A_2     C     0.6764     0.2108     0.2304
A_0     C     0.5334     0.4413     0.8228
A_3     C     0.4876     0.6551     0.0703
A_2     C     0.3513     0.0559     0.1291
A_1     C     0.0924     0.2612     0.6278
A_1     C     0.2283     0.2525     0.5168
A_0     C     0.0845     0.9867     0.6667
A_3     C     0.6921     0.5794     0.0238
A_3     C     0.9156     0.7942     0.9375
A_3     C     0.8001     0.6408     0.7378
A_0     C     0.2338     0.3175     0.2734
A_1     C     0.0301     0.7879     0.0094
A_2     C     0.0425     0.2818     0.7639
A_3     C     0.8899     0.5164     0.3934
A_2     C     0.3412     0.1501     0.7897
A_0     C     0.4226     0.1772     0.4101
A_3     C     0.7823     0.0278     0.5122
A_0     C     0.2196     0.0043     0.407
A_3     C     0.0476     0.229     0.9495
A_0     C     0.6798     0.047     0.5408
A_0     C     0.7654     0.2164     0.5597
A_3     C     0.9897     0.6555     0.9704
A_3     C     0.554     0.6939     0.4626
A_3     C     0.9045     0.7804     0.564
A_1     C     0.7229     0.4645     0.7836
A_3     C     0.314     0.6618     0.4788
A_3     C     0.9221     0.1903     0.4855
A_0     C     0.8869     0.522     0.5178
A_3     C     0.9115     0.4735     0.727
A_3     C     0.6026     0.6155     0.7055
A_2     C     0.4871     0.5066     0.6883
A_2     C     0.6737     0.8911     0.8458
A_2     C     0.0788     0.1894     0.4026
A_0     C     0.1801     0.2105     0.3344
A_2     C     0.3646     0.3888     0.2264
A_2     C     0.9629     0.6216     0.1085
A_1     C     0.015     0.3986     0.7816
A_1     C     0.8988     0.0891     0.5822
A_2     C     0.0139     0.3443     0.7315
A_3     C     0.3011     0.7445     0.6769
A_0     C     0.9269     0.8234     0.9647
A_3     C     0.5271     0.4335     0.3268
A_3     C     0.4323     0.3358     0.6592
A_1     C     0.7199     0.6146     0.06
A_1     C     0.1518     0.0526     0.8471
A_1     C     0.568     0.8274     0.1834
A_2     C     0.5942     0.1979     0.8745
A_3     C     0.6389     0.7156     0.9817
A_0     C     0.8862     0.9563     0.2929
A_1     C     0.015     0.3108     0.2049
A_0     C     0.4893     0.4507     0.7312
A_1     C     0.3788     0.2083     0.5888
A_3     C     0.9544     0.2398     0.2037
A_1     C     0.1857     0.5827     0.2189
A_0     C     0.3015     0.3415     0.4013
A_3     C     0.7073     0.3398     0.6064
A_3     C     0.4074     0.6923     0.2675
A_0     C     0.6484     0.4617     0.2935
A_0     C     0.445     0.0336     0.0918
A_2     C     0.0831     0.4985     0.2625
A_2     C     0.4223     0.6307     0.6291
A_2     C     0.0025     0.2685     0.0365
A_1     C     0.836     0.9905     0.8989
A_1     C     0.7419     0.2914     0.2688
A_1     C     0.4026     0.7422     0.0192
A_1     C     0.5683     0.6199     0.2586
A_3     C     0.709     0.0798     0.5701
A_0     C     0.7296     0.3473     0.2827
A_2     C     0.3915     0.4584     0.4104
A_2     C     0.3128     0.7968     0.4409
A_0     C     0.5564     0.6731     0.8043
A_2     C     0.2982     0.2647     0.1578
A_3     C     0.2418     0.6037     0.8988
A_3     C     0.0988     0.4846     0.8568
A_1     C     0.9428     0.7659     0.8438
A_1     C     0.8907     0.1868     0.0669
A_1     C     0.5891     0.0518     0.8647
A_0     C     0.415     0.2652     0.9718
A_3     C     0.9384     0.9092     0.9276
A_2     C     0.7737     0.1145     0.333
A_2     C     0.8314     0.64     0.8674
A_3     C     0.7868     0.9363     0.523
A_1     C     0.4611     0.3739     0.35
A_2     C     0.3606     0.5198     0.7275
A_0     C     0.1989     0.2197     0.0982
A_2     C     0.8251     0.0714     0.9264
A_1     C     0.2921     0.073     0.1299
A_1     C     0.5892     0.1373     0.0685
A_0     C     0.4355     0.6347     0.7084
A_3     C     0.8098     0.584     0.9819
A_0     C     0.6812     0.192     0.0825
A_3     C     0.1485     0.9116     0.2772
A_2     C     0.0475     0.7508     0.7646
A_3     C     0.86     0.0885     0.4231
A_1     C     0.8739     0.0403     0.1358
A_1     C     0.9094     0.2131     0.1992
A_3     C     0.149     0.5348     0.4487
A_3     C     0.9436     0.7433     0.9015
A_1     C     0.5004     0.0419     0.9499
A_2     C     0.6213     0.9174     0.3742
A_0     C     0.6615     0.2168     0.5531
A_1     C     0.0287     0.5     0.1517
A_2     C     0.4159     0.237     0.4085
A_3     C     0.8884     0.7128     0.4215
A_2     C     0.0574     0.6495     0.2507
A_3     C     0.7796     0.4129     0.3607
A_0     C     0.2352     0.2349     0.7056
A_2     C     0.9159     0.808     0.9323
A_3     C     0.3478     0.7736     0.1424
A_0     C     0.9118     0.3342     0.4355
A_3     C     0.4473     0.5022     0.0286
A_0     C     0.9411     0.8816     0.5584
A_1     C     0.6296     0.6685     0.4943
A_3     C     0.8002     0.5872     0.6253
A_2     C     0.9225     0.8755     0.3573
A_0     C     0.281     0.8655     0.67
A_0     C     0.786     0.2414     0.2881
A_2     C     0.4647     0.7048     0.911
A_1     C     0.7348     0.6477     0.9784
A_1     C     0.808     0.4699     0.306
A_3     C     0.9559     0.1638     0.9826
A_3     C     0.2511     0.5017     0.0489
A_2     C     0.2526     0.7399     0.9842
A_0     C     0.7966     0.2452     0.1906
A_1     C     0.2982     0.4707     0.9397
A_3     C     0.0576     0.7835     0.3489
A_2     C     0.3209     0.4496     0.7389
A_1     C     0.3357     0.2251     0.1506
A_1     C     0.2246     0.0477     0.7696
A_2     C     0.1552     0.8117     0.3411
A_1     C     0.3069     0.0449     0.8486
A_0     C     0.4503     0.0544     0.1662
A_3     C     0.5853     0.1559     0.7595
A_3     C     0.7199     0.7417     0.1636
A_3     C     0.7501     0.5786     0.4334
A_3     C     0.9849     0.1331     0.1599
A_3     C     0.6069     0.9213     0.7083
A_2     C     0.5004     0.6276     0.5906
A_3     C     0.6549     0.3287     0.1857
A_0     C     0.6843     0.8374     0.6692
A_2     C     0.7947     0.0256     0.8111
A_2     C     0.3324     0.1019     0.8084
A_1     C     0.3976     0.3462     0.9026
A_0     C     0.0742     0.6235     0.2993
A_0     C     0.5256     0.9289     0.4232
A_2     C     0.8952     0.2677     0.0567
A_2     C     0.9744     0.8047     0.5452
A_0     C     0.3965     0.824     0.4084
A_2     C     0.3646     0.0398     0.0846
A_3     C     0.9285     0.6246     0.1504
A_2     C     0.4071     0.6551     0.2863
A_1     C     0.117     0.2162     0.7528
A_3     C     0.9225     0.8143     0.1966
A_1     C     0.4853     0.8926     0.8927
A_3     C     0.109     0.5031     0.3185
A_0     C     0.5566     0.5728     0.2522
A_0     C     0.903     0.2386     0.7973
A_2     C     0.4792     0.0652     0.4363
A_3     C     0.1717     0.7249     0.0593
A_2     C     0.4547     0.9146     0.0794
A_2     C     0.5879     0.6539     0.0339
A_0     C     0.1203     0.6164     0.5515
A_3     C     0.5079     0.92     0.0846
A_0     C     0.4918     0.2156     0.954
A_3     C     0.3151     0.8593     0.7662
A_1     C     0.1842     0.2395     0.9753
A_3     C     0.2482     0.6615     0.6291
A_3     C     0.1397     0.4696     0.2384
A_0     C     0.9523     0.1973     0.3542
A_1     C     0.5043     0.4967     0.9482
A_2     C     0.9112     0.5575     0.128
A_1     C     0.0783     0.8061     0.8281
A_1     C     0.6199     0.4806     0.9334
A_1     C     0.4175     0.4216     0.1025
A_0     C     0.577     0.3527     0.1759
A_2     C     0.7124     0.7055     0.4846
A_3     C     0.1771     0.4253     0.3468
A_2     C     0.6399     0.8715     0.3725
A_2     C     0.2758     0.8412     0.8076
A_2     C     0.8682     0.8347     0.1055
A_2     C     0.757     0.9777     0.8459
A_1     C     0.0535     0.875     0.7325
A_0     C     0.4833     0.8037     0.634
A_2     C     0.9449     0.1912     0.0764
A_2     C     0.4187     0.1531     0.0145
A_3     C     0.0633     0.8099     0.0314
A_2     C     0.2936     0.3689     0.504
A_2     C     0.6885     0.9213     0.9796
A_0     C     0.8929     0.9085     0.4976
A_2     C     0.2985     0.2992     0.5094
A_2     C     0.3581     0.5368     0.2134
A_0     C     0.4375     0.9867     0.9836
A_0     C     0.3762     0.9413     0.3683
A_3     C     0.2882     0.4427     0.3837
A_3     C     0.4325     0.3857     0.114
A_3     C     0.824     0.6819     0.1495
A_1     C     0.0623     0.4061     0.4326
A_1     C     0.9083     0.2741     0.0996
A_0     C     0.2741     0.1194     0.2359
A_1     C     0.6387     0.191     0.8566
A_2     C     0.2579     0.2511     0.3039
A_0     C     0.5507     0.8475     0.7559
A_0     C     0.8108     0.0034     0.0134
A_1     C     0.4825     0.3856     0.2017
A_3     C     0.3689     0.1138     0.7391
A_3     C     0.2569     0.1379     0.5911
A_2     C     0.7584     0.5316     0.6818
A_0     C     0.2467     0.4751     0.8331
A_3     C     0.111     0.6457     0.3422
A_1     C     0.3958     0.8452     0.3468
A_1     C     0.3573     0.9665     0.3083
A_1     C     0.1871     0.3536     0.6328
A_1     C     0.934     0.881     0.632
A_1     C     0.5467     0.4078     0.9891
A_3     C     0.8644     0.2594     0.6411
A_0     C     0.9788     0.0699     0.9776
A_2     C     0.6117     0.93     0.136
A_3     C     0.2688     0.6923     0.8703
A_1     C     0.8974     0.9661     0.6007
A_0     C     0.4911     0.5751     0.3475
A_0     C     0.7802     0.8617     0.1561
A_1     C     0.8967     0.6586     0.8557
A_1     C     0.3922     0.5993     0.7558
A_3     C     0.1998     0.8301     0.628
A_0     C     0.441     0.2885     0.2384
A_0     C     0.1628     0.6848     0.4842
A_3     C     0.3471     0.4488     0.7582
A_3     C     0.6569     0.0391     0.1764
A_1     C     0.0541     0.2781     0.672
A_0     C     0.4064     0.9211     0.7543
A_0     C     0.233     0.4525     0.2186
A_0     C     0.2245     0.2902     0.0534
A_0     C     0.8984     0.8622     0.4761
A_1     C     0.9189     0.1656     0.9446
A_3     C     0.1292     0.9353     0.1001
A_1     C     0.4177     0.5926     0.0216
A_3     C     0.2232     0.0274     0.6289
A_3     C     0.2301     0.2933     0.3628
A_2     C     0.9849     0.7767     0.5064
A_2     C     0.8694     0.7461     0.353
A_2     C     0.0898     0.6289     0.2179
A_3     C     0.6912     0.249     0.4481
A_0     C     0.9978     0.7797     0.8624
A_0     C     0.2506     0.772     0.2746
A_3     C     0.9672     0.4894     0.5216
A_1     C     0.7783     0.4657     0.6283
A_0     C     0.1683     0.8198     0.6584
A_2     C     0.9146     0.9987     0.5125
A_2     C     0.9397     0.4956     0.7999
A_2     C     0.4606     0.7435     0.3593
A_3     C     0.139     0.9965     0.8086
A_3     C     0.1922     0.7718     0.8616
A_3     C     0.4423     0.1928     0.1429
A_1     C     0.26     0.6769     0.4239
A_3     C     0.3805     0.5193     0.9701
A_2     C     0.5259     0.9292     0.6174
A_2     C     0.0919     0.9677     0.7884
A_3     C     0.7657     0.75     0.4806
A_0     C     0.2688     0.6568     0.8978
A_3     C     0.68     0.5863     0.1822
A_3     C     0.4382     0.9895     0.8996
A_1     C     0.9315     0.9271     0.5272
A_1     C     0.1258     0.4268     0.4274
A_0     C     0.8626     0.1027     0.1343
A_3     C     0.8098     0.5185     0.7184
A_1     C     0.6095     0.7831     0.877
A_2     C     0.6719     0.3494     0.3047
A_3     C     0.0948     0.1784     0.4589
A_0     C     0.2004     0.8509     0.3683
A_0     C     0.0597     0.0869     0.244
A_0     C     0.5385     0.9585     0.4925
A_1     C     0.8962     0.9837     0.251
A_0     C     0.6824     0.3916     0.1734
A_1     C     0.1465     0.1494     0.7064
A_1     C     0.2679     0.4352     0.7609
A_2     C     0.3452     0.7054     0.7069
A_2     C     0.3449     0.6944     0.3588
A_3     C     0.7095     0.8291     0.2218
A_3     C     0.3924     0.3984     0.3683
A_3     C     0.4987     0.3629     0.6575
A_3     C     0.1931     0.8726     0.7067
A_1     C     0.928     0.1236     0.2346
A_1     C     0.3666     0.8551     0.8879
A_1     C     0.8254     0.3435     0.4815
A_0     C     0.4299     0.9927     0.0065
A_3     C     0.0877     0.7244     0.4116
A_1     C     0.1652     0.508     0.5027
A_0     C     0.2166     0.4813     0.8494
A_1     C     0.3959     0.9746     0.191
A_0     C     0.2145     0.4518     0.0344
A_1     C     0.7583     0.8652     0.3273
A_2     C     0.2495     0.4224     0.0164
A_2     C     0.0131     0.5382     0.4677
A_2     C     0.8068     0.3976     0.3
A_1     C     0.7016     0.4189     0.248
A_2     C     0.3606     0.3405     0.0163
A_3     C     0.1691     0.631     0.6901
A_3     C     0.3829     0.7932     0.9506
A_1     C     0.7341     0.8788     0.2581
A_2     C     0.111     0.4664     0.5847
A_3     C     0.0049     0.3348     0.7718
A_3     C     0.311     0.3769     0.6162
A_2     C     0.7163     0.0295     0.152
A_3     C     0.9817     0.779     0.604
A_2     C     0.1832     0.7913     0.348
A_1     C     0.7959     0.5152     0.6711
A_2     C     0.3511     0.1664     0.709
A_3     C     0.6382     0.6913     0.0689
A_2     C     0.5139     0.988     0.9974
A_3     C     0.3663     0.4624     0.784
A_0     C     0.726     0.2043     0.7295
A_1     C     0.8321     0.4875     0.657
A_3     C     0.4409     0.3301     0.1032
A_0     C     0.0159     0.5033     0.404
A_2     C     0.4184     0.8116     0.7325
A_1     C     0.3674     0.9913     0.9074
A_1     C     0.0121     0.4914     0.3327
A_3     C     0.6021     0.3775     0.6721
A_0     C     0.9712     0.6754     0.188
A_1     C     0.8533     0.0827     0.1339
A_3     C     0.1697     0.0857     0.1861
A_0     C     0.5174     0.975     0.8335
A_1     C     0.978     0.3975     0.1483
A_1     C     0.7773     0.0364     0.8581
A_1     C     0.3326     0.4457     0.3081
A_3     C     0.8537     0.7253     0.5172
A_2     C     0.0479     0.7447     0.1414
A_3     C     0.6121     0.0436     0.1171
A_0     C     0.8519     0.5999     0.2145
A_2     C     0.7728     0.5597     0.7609
A_0     C     0.1167     0.418     0.7718
A_1     C     0.1588     0.2565     0.8709
A_3     C     0.6717     0.0638     0.9538
A_3     C     0.1566     0.458     0.3033
A_0     C     0.1539     0.7795     0.7339
A_3     C     0.7386     0.8838     0.0073
A_3     C     0.5574     0.7712     0.9786
A_1     C     0.1097     0.45     0.6178
A_1     C     0.4017     0.3698     0.5009
A_3     C     0.6719     0.202     0.3137
A_1     C     0.1679     0.3539     0.0645
A_3     C     0.5539     0.2114     0.364
A_0     C     0.9334     0.3318     0.0918
A_0     C     0.6983     0.376     0.5335
A_0     C     0.8638     0.8858     0.967
A_0     C     0.6276     0.4651     0.7326
A_1     C     0.5451     0.5888     0.6089
A_3     C     0.5454     0.7174     0.5855
A_3     C     0.5144     0.4333     0.5157
A_2     C     0.279     0.4578     0.9202
A_1     C     0.8658     0.8134     0.1581
A_0     C     0.0706     0.7772     0.3769
A_1     C     0.7252     0.2006     0.5344
A_0     C     0.6793     0.0948     0.3784
A_0     C     0.8601     0.6129     0.0308
A_1     C     0.3227     0.7728     0.6626
A_2     C     0.4235     0.1955     0.4848
A_0     C     0.3901     0.025     0.3806
A_1     C     0.7515     0.8953     0.2226
A_3     C     0.4702     0.2622     0.8923
A_3     C     0.2528     0.3901     0.4659
A_2     C     0.9589     0.7431     0.638
A_2     C     0.7775     0.3348     0.2223
A_3     C     0.5709     0.6353     0.1855
A_2     C     0.0713     0.3825     0.1287
A_3     C     0.0956     0.2921     0.6008
A_1     C     0.4854     0.532     0.8798
A_3     C     0.7193     0.676     0.9408
A_1     C     0.5205     0.3707     0.7617
A_0     C     0.7612     0.2399     0.9072
A_2     C     0.1904     0.1771     0.6318
A_3     C     0.1327     0.7302     0.1243
A_3     C     0.5995     0.8853     0.2011
A_2     C     0.6141     0.0188     0.3862
A_3     C     0.8031     0.6901     0.4414
A_1     C     0.1258     0.6498     0.2611
A_3     C     0.2299     0.8877     0.9359
A_3     C     0.7667     0.1872     0.8851
A_3     C     0.1839     0.6307     0.7352
A_2     C     0.7648     0.9433     0.5696
A_0     C     0.2936     0.0199     0.1937
A_2     C     0.7678     0.6037     0.2497
A_0     C     0.6831     0.1164     0.5125
A_1     C     0.6692     0.7203     0.8948
A_2     C     0.7741     0.2139     0.8804
A_2     C     0.8538     0.8815     0.6146
A_1     C     0.3469     0.9386     0.0017
A_2     C     0.9274     0.3468     0.9535
A_2     C     0.9867     0.9893     0.5602
A_1     C     0.6962     0.798     0.4194
A_1     C     0.203     0.7745     0.5129
A_2     C     0.8665     0.5471     0.399
A_3     C     0.7159     0.0444     0.2162
A_2     C     0.9095     0.6214     0.4511
A_0     C     0.4637     0.5277     0.3454
A_2     C     0.6396     0.3073     0.2786
A_0     C     0.211     0.431     0.7733
A_1     C     0.8429     0.1996     0.0951
A_0     C     0.4165     0.664     0.132
A_1     C     0.3948     0.5646     0.9924
A_2     C     0.1702     0.9146     0.6658
A_0     C     0.3109     0.541     0.4381
A_1     C     0.4547     0.6579     0.308
A_1     C     0.7371     0.6593     0.2234
A_0     C     0.7595     0.6164     0.5871
A_2     C     0.1188     0.1746     0.481
A_2     C     0.3348     0.2288     0.1663
A_2     C     0.9569     0.6767     0.3583
A_3     C     0.6086     0.3239     0.335
A_0     C     0.0838     0.4942     0.7265
A_2     C     0.567     0.6286     0.7133
A_0     C     0.6135     0.4493     0.9266
A_1     C     0.1558     0.5623     0.023
A_3     C     0.0279     0.1793     0.5292
A_1     C     0.7286     0.6397     0.097
A_3     C     0.5309     0.0018     0.4463
A_2     C     0.0663     0.381     0.3617
A_2     C     0.0539     0.6268     0.6161
A_3     C     0.6585     0.3825     0.8759
A_2     C     0.4373     0.4089     0.812
A_2     C     0.5437     0.0109     0.6354
A_2     C     0.1355     0.1911     0.3067
A_2     C     0.2645     0.6694     0.173
A_3     C     0.7105     0.4997     0.1689
A_2     C     0.1854     0.8148     0.752
A_3     C     0.7598     0.7628     0.1616
A_3     C     0.3645     0.9373     0.5816
A_3     C     0.891     0.2448     0.669
A_0     C     0.1003     0.8995     0.3451
A_1     C     0.1567     0.6398     0.5521
A_2     C     0.6375     0.2165     0.3124
A_3     C     0.8177     0.3675     0.558
A_3     C     0.716     0.9631     0.9587
A_0     C     0.3439     0.7617     0.193
A_2     C     0.5093     0.94     0.2416
A_0     C     0.671     0.3897     0.9627
A_0     C     0.0092     0.5771     0.7825
A_1     C     0.4423     0.8398     0.2522
A_0     C     0.7501     0.0749     0.5362
A_0     C     0.6792     0.0168     0.6586
A_0     C     0.3365     0.0423     0.0804
A_0     C     0.1165     0.4804     0.6092
A_1     C     0.986     0.8764     0.5488
A_3     C     0.9588     0.5421     0.8934
A_1     C     0.9137     0.7116     0.7461
A_3     C     0.7234     0.4519     0.0554
A_0     C     0.7507     0.7791     0.2581
A_0     C     0.2304     0.0227     0.3288
A_0     C     0.1587     0.0933     0.2437
A_0     C     0.5644     0.5157     0.1193
A_2     C     0.0118     0.96     0.2611
A_2     C     0.8354     0.6337     0.9014
A_3     C     0.9213     0.2196     0.4469
A_2     C     0.8224     0.2899     0.6647
A_3     C     0.4597     0.6154     0.3319
A_3     C     0.598     0.7204     0.8918
A_2     C     0.0947     0.1484     0.1485
A_2     C     0.1141     0.7766     0.9156
A_1     C     0.1679     0.0936     0.6255
A_2     C     0.4553     0.5723     0.6537
A_2     C     0.6119     0.4437     0.622
A_2     C     0.4166     0.0019     0.1948
A_2     C     0.9827     0.7307     0.6818
A_1     C     0.6028     0.361     0.3621
A_3     C     0.6251     0.614     0.9761
A_2     C     0.171     0.8931     0.268
A_1     C     0.1419     0.8513     0.264
A_2     C     0.8067     0.2819     0.2912
A_1     C     0.0936     0.0497     0.8416
A_1     C     0.5892     0.3177     0.1746
A_1     C     0.3094     0.4213     0.4379
A_1     C     0.1317     0.4179     0.6554
A_2     C     0.6999     0.817     0.1234
A_3     C     0.8693     0.9589     0.0993
A_0     C     0.8041     0.5626     0.2443
A_3     C     0.1429     0.9029     0.9709
A_2     C     0.9633     0.7907     0.928
A_2     C     0.0009     0.3557     0.9862
A_1     C     0.9813     0.1648     0.0716
A_2     C     0.4931     0.7314     0.4911
A_2     C     0.443     0.5086     0.5665
A_2     C     0.825     0.2983     0.1258
A_2     C     0.0884     0.0468     0.6923
A_0     C     0.4342     0.7955     0.4047
A_1     C     0.5391     0.7516     0.3325
A_1     C     0.6187     0.7384     0.5592
A_1     C     0.5697     0.6817     0.6558
A_3     C     0.8447     0.9103     0.8904
A_3     C     0.5665     0.4829     0.0984
A_0     C     0.2491     0.3981     0.6497
A_3     C     0.0143     0.3856     0.1776
A_0     C     0.1641     0.4622     0.3126
A_3     C     0.209     0.1887     0.8003
A_0     C     0.4054     0.1187     0.326
A_0     C     0.3276     0.886     0.0417
A_0     C     0.3739     0.0631     0.3913
A_1     C     0.0269     0.9023     0.7691
A_0     C     0.4196     0.5455     0.2577
A_3     C     0.6353     0.9505     0.6409
A_1     C     0.3686     0.4653     0.1577
A_0     C     0.0276     0.8106     0.6082
A_3     C     0.0102     0.4058     0.7457
A_3     C     0.4516     0.5662     0.3862
A_0     C     0.4973     0.0112     0.8445
A_2     C     0.2552     0.6289     0.7868
A_3     C     0.693     0.8038     0.8878
A_2     C     0.9569     0.442     0.5383
A_2     C     0.3742     0.3145     0.8204
A_2     C     0.6628     0.1205     0.8988
A_1     C     0.019     0.7861     0.2647
A_0     C     0.557     0.3153     0.5065
A_1     C     0.3567     0.3722     0.4109
A_0     C     0.0593     0.6718     0.7586
A_0     C     0.8196     0.0356     0.2175
A_3     C     0.3437     0.4039     0.1794
A_1     C     0.7181     0.0666     0.8665
A_2     C     0.5023     0.1316     0.494
A_1     C     0.4919     0.6205     0.0005
A_3     C     0.3169     0.2811     0.9545
A_3     C     0.9754     0.565     0.5137
A_3     C     0.7095     0.1976     0.7178
A_3     C     0.312     0.2316     0.449
A_2     C     0.2341     0.4963     0.4785
A_2     C     0.7115     0.4826     0.4922
A_2     C     0.0538     0.3768     0.5283
A_1     C     0.263     0.407     0.7901
A_2     C     0.7592     0.2156     0.4893
A_0     C     0.0417     0.4802     0.3556
A_3     C     0.5245     0.0432     0.5861
A_3     C     0.8202     0.2263     0.8325
A_1     C     0.3105     0.7101     0.8691
A_3     C     0.9462     0.6177     0.7251
A_0     C     0.412     0.5294     0.9326
A_0     C     0.0031     0.8082     0.8311
A_3     C     0.0713     0.4749     0.9587
A_0     C     0.6097     0.2788     0.327
A_3     C     0.0562     0.2409     0.0383
A_3     C     0.6138     0.044     0.6703
A_2     C     0.7136     0.358     0.0897
A_1     C     0.2345     0.03     0.703
A_2     C     0.4084     0.8026     0.0807
A_2     C     0.8106     0.6282     0.6524
A_2     C     0.3708     0.2803     0.1304
A_3     C     0.2875     0.3717     0.4763
A_0     C     0.5594     0.223     0.0682
A_1     C     0.7755     0.5288     0.9752
A_3     C     0.0011     0.7109     0.1869
A_3     C     0.3377     0.2957     0.5116
A_1     C     0.0342     0.1673     0.6903
A_0     C     0.3631     0.1823     0.8358
A_2     C     0.373     0.3077     0.5419
A_1     C     0.6371     0.0683     0.5238
A_2     C     0.3127     0.9274     0.8166
A_3     C     0.408     0.3747     0.03
A_1     C     0.3779     0.3925     0.4454
A_1     C     0.0243     0.8489     0.2435
A_2     C     0.605     0.7116     0.9623
A_2     C     0.956     0.4631     0.174
A_3     C     0.0506     0.2667     0.0185
A_1     C     0.7457     0.5335     0.619
A_0     C     0.8599     0.1602     0.2415
A_1     C     0.1399     0.5322     0.2718
A_2     C     0.1326     0.0454     0.4071
A_1     C     0.8777     0.865     0.643
A_2     C     0.0757     0.5473     0.7295
A_0     C     0.2494     0.434     0.3446
A_2     C     0.8523     0.6346     0.5304
A_2     C     0.4206     0.7443     0.3871
A_3     C     0.9328     0.6383     0.0843
A_1     C     0.162     0.0671     0.6072
A_3     C     0.5989     0.5227     0.5767
A_0     C     0.0967     0.5218     0.8285
A_2     C     0.4995     0.6878     0.5702
A_1     C     0.4967     0.2812     0.3802
A_2     C     0.4511     0.3544     0.8463
A_1     C     0.4584     0.2486     0.169
A_1     C     0.9859     0.0935     0.8043
A_1     C     0.9104     0.3716     0.2192
A_3     C     0.4453     0.2624     0.7057
A_1     C     0.4242     0.3587     0.7219
A_0     C     0.011     0.7317     0.4105
A_1     C     0.4052     0.7451     0.9525
A_0     C     0.1071     0.272     0.594
A_0     C     0.1226     0.4459     0.6461
A_3     C     0.8226     0.9497     0.2281
A_2     C     0.5204     0.3223     0.674
A_0     C     0.8253     0.5096     0.4072
A_0     C     0.5669     0.8734     0.6903
A_1     C     0.5114     0.0793     0.5845
A_3     C     0.7402     0.8256     0.5664
A_2     C     0.65     0.0972     0.2251
A_0     C     0.5643     0.7194     0.5637
A_0     C     0.7683     0.6435     0.6904
A_2     C     0.706     0.7997     0.3471
A_3     C     0.4212     0.4663     0.3575
A_1     C     0.5762     0.6942     0.7424
A_3     C     0.9184     0.7988     0.3131
A_1     C     0.985     0.0089     0.5701
A_3     C     0.7485     0.2165     0.6335
A_3     C     0.8547     0.1944     0.1291
A_0     C     0.4627     0.7583     0.648
A_3     C     0.1215     0.633     0.5044
A_1     C     0.2125     0.8943     0.6215
A_3     C     0.5129     0.2486     0.8737
A_1     C     0.3505     0.9129     0.0973
A_0     C     0.0059     0.3696     0.6371
A_3     C     0.4312     0.7208     0.9426
A_0     C     0.5934     0.4117     0.9337
A_2     C     0.4036     0.5799     0.8457
A_3     C     0.3812     0.6326     0.9991
A_3     C     0.1797     0.5754     0.2646
A_1     C     0.9896     0.9106     0.7157
A_3     C     0.4437     0.7665     0.9742
A_1     C     0.4749     0.5277     0.5345
A_0     C     0.0852     0.5886     0.8229
A_3     C     0.9671     0.4162     0.1179
A_3     C     0.3474     0.6403     0.0348
A_3     C     0.4445     0.0367     0.2669
A_3     C     0.4954     0.9703     0.2914
A_1     C     0.3714     0.6811     0.1861
A_1     C     0.3049     0.8217     0.2284
A_2     C     0.5427     0.1198     0.7148
A_3     C     0.2086     0.4085     0.3392
A_0     C     0.4679     0.997     0.4779
A_2     C     0.4844     0.1055     0.0793
A_0     C     0.0021     0.9016     0.8517
A_1     C     0.146     0.718     0.2043
A_3     C     0.7649     0.5342     0.6496
A_2     C     0.3817     0.0813     0.6714
A_2     C     0.1781     0.5686     0.9598
A_3     C     0.2451     0.2398     0.2642
A_0     C     0.3777     0.0755     0.6584
A_3     C     0.4734     0.6528     0.9336
A_0     C     0.0496     0.2952     0.7717
A_3     C     0.3129     0.7571     0.1835
A_2     C     0.6982     0.6149     0.2476
A_2     C     0.823     0.8408     0.3859
A_0     C     0.8552     0.8552     0.4119
A_1     C     0.1237     0.5095     0.4814
A_3     C     0.3316     0.3542     0.0523
A_0     C     0.238     0.1273     0.381
A_1     C     0.5265     0.8462     0.3894
A_2     C     0.7173     0.0126     0.9077
A_2     C     0.0632     0.7933     0.8948
A_3     C     0.0269     0.0652     0.4575
A_0     C     0.5728     0.9197     0.5708
A_2     C     0.54     0.5569     0.843
A_2     C     0.5949     0.8655     0.4178
A_0     C     0.0175     0.4942     0.8624
A_0     C     0.5526     0.6536     0.0147
A_3     C     0.7356     0.2477     0.5994
A_2     C     0.5931     0.2805     0.2357
A_0     C     0.705     0.6083     0.4519
A_3     C     0.4088     0.5798     0.4164
A_0     C     0.978     0.1437     0.0034
A_3     C     0.134     0.5262     0.2325
A_2     C     0.5985     0.7014     0.1375
A_0     C     0.813     0.4578     0.4486
A_0     C     0.9785     0.5098     0.1084
A_0     C     0.9056     0.4298     0.152
A_2     C     0.6072     0.0966     0.7389
A_3     C     0.9351     0.128     0.1326
A_2     C     0.4438     0.1185     0.6554
A_2     C     0.9642     0.3282     0.8347
A_0     C     0.4844     0.6648     0.7295
A_0     C     0.1588     0.7757     0.3428
A_1     C     0.8206     0.3826     0.5866
A_2     C     0.5013     0.5487     0.6035
A_1     C     0.136     0.0213     0.7835
A_2     C     0.807     0.5257     0.1889
A_2     C     0.0132     0.9301     0.1054
A_1     C     0.9481     0.2714     0.0049
A_2     C     0.1603     0.0121     0.1393
A_3     C     0.3396     0.2429     0.9225
A_0     C     0.6712     0.4029     0.5559
A_3     C     0.649     0.0956     0.3794
A_1     C     0.6354     0.6515     0.967
A_2     C     0.7402     0.2472     0.6887
A_2     C     0.4789     0.6878     0.701
A_0     C     0.4784     0.7643     0.5199
A_0     C     0.2652     0.2122     0.3428
A_3     C     0.9603     0.2723     0.7737
A_1     C     0.3216     0.4007     0.3988
A_2     C     0.3922     0.5069     0.4824
A_2     C     0.614     0.8149     0.7075
A_3     C     0.4209     0.6698     0.8855
A_2     C     0.2013     0.1169     0.4467
A_3     C     0.9472     0.7683     0.4154
A_1     C     0.9717     0.3769     0.5733
A_1     C     0.4687     0.6522     0.3385
A_2     C     0.0744     0.1908     0.5103
A_0     C     0.1213     0.898     0.154
A_3     C     0.817     0.6837     0.7697
A_0     C     0.4858     0.5781     0.0229
A_0     C     0.7656     0.7025     0.2755
A_3     C     0.7514     0.5496     0.1748
A_1     C     0.0896     0.5439     0.9809
A_1     C     0.38     0.0744     0.8863
A_3     C     0.7291     0.9096     0.3024
A_0     C     0.613     0.4882     0.698
A_2     C     0.2711     0.4828     0.9027
A_2     C     0.8658     0.5707     0.3621
A_1     C     0.4745     0.4125     0.4706
A_3     C     0.8843     0.8842     0.7344
A_0     C     0.7145     0.5707     0.9865
A_2     C     0.251     0.4273     0.0204
A_2     C     0.2169     0.0466     0.4408
A_3     C     0.6571     0.2715     0.1731
A_0     C     0.3078     0.5562     0.7565
A_2     C     0.7738     0.5505     0.7008
A_1     C     0.6479     0.2331     0.7507
A_1     C     0.0542     0.4244     0.5488
A_3     C     0.0382     0.0641     0.2663
A_2     C     0.9709     0.2472     0.2805
A_0     C     0.3093     0.3994     0.8466
A_3     C     0.1268     0.361     0.5641
A_0     C     0.5639     0.6263     0.8366
A_0     C     0.4417     0.368     0.4495
A_3     C     0.8353     0.0951     0.1717
A_0     C     0.9838     0.6572     0.258
A_0     C     0.9547     0.9777     0.3131
A_3     C     0.8577     0.1558     0.9562
A_2     C     0.1562     0.2986     0.6314
A_2     C     0.8203     0.9716     0.142
A_2     C     0.7048     0.4474     0.2625
A_2     C     0.4491     0.909     0.9011
A_1     C     0.4636     0.0028     0.2759
A_0     C     0.166     0.1549     0.5439
A_2     C     0.0392     0.885     0.1074
A_2     C     0.0505     0.9752     0.2282
A_1     C     0.1784     0.943     0.7581
A_1     C     0.4189     0.0477     0.3766
A_0     C     0.3244     0.3673     0.4341
A_1     C     0.5308     0.855     0.6729
A_3     C     0.8101     0.8384     0.4477
A_3     C     0.4877     0.5904     0.3044
A_1     C     0.1257     0.8948     0.7281
A_1     C     0.2204     0.0745     0.0028
A_0     C     0.4652     0.1873     0.3225
A_0     C     0.3608     0.3354     0.2741
A_3     C     0.7717     0.9362     0.8511
A_2     C     0.2315     0.9553     0.2079
A_1     C     0.0216     0.1356     0.9707
A_3     C     0.0356     0.3349     0.8912
A_2     C     0.8296     0.8306     0.4001
A_1     C     0.5282     0.148     0.9122
A_1     C     0.3642     0.9858     0.6334
A_0     C     0.7286     0.0945     0.7304
A_2     C     0.9073     0.654     0.3408
A_1     C     0.4111     0.0059     0.381
A_1     C     0.6329     0.4518     0.7595
A_1     C     0.8219     0.8894     0.313
A_2     C     0.8857     0.116     0.9035
A_2     C     0.482     0.4747     0.4129
A_3     C     0.2571     0.2449     0.3739
A_3     C     0.532     0.9419     0.7899
A_2     C     0.4484     0.1503     0.2989
A_0     C     0.6142     0.5411     0.2266
A_2     C     0.0722     0.7833     0.9893
A_3     C     0.2565     0.7846     0.8053
A_0     C     0.248     0.7432     0.0813
A_1     C     0.2692     0.0452     0.1037
A_3     C     0.2139     0.2125     0.6643
A_0     C     0.874     0.9689     0.7782
A_2     C     0.933     0.4394     0.285
A_2     C     0.8814     0.7568     0.5364
A_3     C     0.5644     0.3214     0.5817
A_3     C     0.6549     0.5226     0.5965
A_3     C     0.8455     0.1071     0.4442
A_1     C     0.7375     0.5988     0.5795
A_0     C     0.0068     0.0159     0.742
A_1     C     0.9263     0.0824     0.946
A_3     C     0.6339     0.6119     0.2964
A_1     C     0.6012     0.2202     0.7955
A_2     C     0.0611     0.5528     0.5158
A_1     C     0.8086     0.3333     0.9089
A_0     C     0.019     0.076     0.3671
A_1     C     0.8343     0.6058     0.9039
A_1     C     0.1291     0.0821     0.0076
A_0     C     0.1893     0.1711     0.603
A_0     C     0.9095     0.4835     0.5446
A_2     C     0.6759     0.7013     0.9161
A_0     C     0.5145     0.832     0.5164
A_2     C     0.017     0.4686     0.087
A_2     C     0.5412     0.2266     0.4262
A_1     C     0.3454     0.4796     0.2746
A_3     C     0.5667     0.0475     0.8656
A_0     C     0.7491     0.3385     0.1872
A_1     C     0.5039     0.8769     0.7269
A_0     C     0.5036     0.8087     0.5474
A_1     C     0.1646     0.6964     0.1089
A_0     C     0.1969     0.5537     0.6558
A_2     C     0.666     0.261     0.5683
A_3     C     0.3947     0.1813     0.5024
A_1     C     0.2879     0.4792     0.0719
A_2     C     0.3089     0.427     0.9365
A_2     C     0.6206     0.6736     0.4714
A_2     C     0.3258     0.6377     0.4807
A_3     C     0.1764     0.4094     0.6834
A_3     C     0.3906     0.1521     0.2391
A_3     C     0.7305     0.6771     0.0928
A_2     C     0.0546     0.6981     0.7475
A_1     C     0.8259     0.2416     0.8569
A_3     C     0.7385     0.2063     0.5666
A_1     C     0.6754     0.3604     0.0645
A_3     C     0.0921     0.1259     0.0275
A_2     C     0.2763     0.504     0.3884
A_0     C     0.9017     0.9346     0.5814
A_3     C     0.0948     0.3761     0.3771
A_0     C     0.0309     0.3812     0.3069
A_2     C     0.0628     0.107     0.5586
A_1     C     0.8763     0.8387     0.8627
A_1     C     0.8666     0.0785     0.9466
A_2     C     0.8372     0.2618     0.2313
A_3     C     0.4746     0.9836     0.1001
A_2     C     0.911     0.9688     0.6042
A_3     C     0.3028     0.6923     0.0576
A_3     C     0.4824     0.9785     0.5239
A_2     C     0.4323     0.9917     0.0214
A_0     C     0.7682     0.5067     0.9536
A_2     C     0.0709     0.5408     0.1693
A_0     C     0.5103     0.9331     0.9066
A_3     C     0.6196     0.6873     0.8165
A_0     C     0.2472     0.8962     0.4505
A_2     C     0.6177     0.735     0.3862
A_1     C     0.118     0.8313     0.4461
A_3     C     0.6672     0.0442     0.0303
A_2     C     0.0825     0.4927     0.4787
A_1     C     0.8406     0.1116     0.9672
A_1     C     0.0067     0.6032     0.0992
A_1     C     0.7838     0.7539     0.4496
A_2     C     0.1688     0.5456     0.2413
A_0     C     0.4565     0.7786     0.5325
A_2     C     0.0841     0.1602     0.1687
A_1     C     0.3729     0.3215     0.5437
A_2     C     0.0971     0.197     0.1323
A_2     C     0.4732     0.5476     0.6735
A_3     C     0.133     0.784     0.1856
A_2     C     0.7704     0.1448     0.4457
A_1     C     0.9027     0.9798     0.8092
A_1     C     0.1367     0.7552     0.5064
A_1     C     0.0622     0.1577     0.9056
A_3     C     0.7749     0.0722     0.734
A_0     C     0.1354     0.8828     0.4228
A_3     C     0.4728     0.0626     0.8862
A_1     C     0.1667     0.6034     0.5735
A_0     C     0.2167     0.4332     0.1279
A_1     C     0.6202     0.4824     0.7496
A_2     C     0.9551     0.9134     0.1564
A_0     C     0.8119     0.0299     0.9994
A_0     C     0.6362     0.012     0.6189
A_3     C     0.7811     0.38     0.2036
A_3     C     0.6755     0.3107     0.8934
A_3     C     0.0391     0.6629     0.6411
A_1     C     0.1732     0.5616     0.5572
A_3     C     0.1465     0.699     0.4597
A_0     C     0.132     0.1084     0.1572
A_0     C     0.9658     0.7394     0.4407
A_0     C     0.7937     0.6695     0.3802
A_2     C     0.0387     0.4762     0.0556
A_0     C     0.8524     0.3807     0.9706
A_3     C     0.2607     0.5667     0.8617
A_1     C     0.8142     0.1369     0.97
A_0     C     0.4696     0.7647     0.2193
A_2     C     0.1364     0.3246     0.1606
A_1     C     0.9483     0.3495     0.2698
A_3     C     0.8481     0.8038     0.2949
A_0     C     0.1727     0.9066     0.3228
A_1     C     0.2331     0.4513     0.4258
A_3     C     0.494     0.3913     0.4331
A_3     C     0.0366     0.8585     0.4758
A_3     C     0.6283     0.0758     0.1485
A_3     C     0.0638     0.44     0.547
A_1     C     0.7736     0.4735     0.3886
A_2     C     0.2648     0.4368     0.9688
A_0     C     0.8721     0.7225     0.0389
A_0     C     0.7571     0.8898     0.8105
A_3     C     0.7805     0.4865     0.3777
A_0     C     0.2806     0.6038     0.9984
A_1     C     0.7051     0.7913     0.9406
A_0     C     0.1769     0.9265     0.5097
A_1     C     0.2898     0.0436     0.1388
A_1     C     0.1395     0.6461     0.0327
A_1     C     0.9157     0.3918     0.7434
A_3     C     0.6594     0.1385     0.2684
A_3     C     0.0205     0.0726     0.1677
A_0     C     0.9663     0.0938     0.3587
A_0     C     0.8672     0.7392     0.9025
A_0     C     0.6329     0.1144     0.8511
A_1     C     0.8558     0.8558     0.2301
A_2     C     0.1447     0.9427     0.5373
A_2     C     0.0091     0.8108     0.9438
A_1     C     0.4599     0.4447     0.9462
A_0     C     0.8831     0.5079     0.7158
A_0     C     0.2385     0.5035     0.9274
A_1     C     0.423     0.7623     0.0568
A_1     C     0.3465     0.9524     0.1632
A_3     C     0.962     0.4075     0.5114
A_2     C     0.0213     0.6471     0.7481
A_2     C     0.2857     0.7696     0.241
A_1     C     0.8238     0.0933     0.2694
A_0     C     0.5985     0.6594     0.137
A_1     C     0.8154     0.1048     0.7281
A_2     C     0.1061     0.4243     0.916
A_1     C     0.3531     0.1499     0.5177
A_2     C     0.3516     0.0423     0.1038
A_2     C     0.4298     0.6323     0.3291
A_2     C     0.3729     0.4756     0.1331
A_0     C     0.0231     0.7025     0.7769
A_0     C     0.9363     0.5757     0.1952
A_3     C     0.6617     0.8727     0.3454
A_1     C     0.2227     0.5847     0.0709
A_3     C     0.6371     0.288     0.3379
A_1     C     0.3182     0.2961     0.7116
A_1     C     0.9578     0.8287     0.247
A_0     C     0.5404     0.1492     0.0295
A_1     C     0.9748     0.3796     0.6193
A_3     C     0.5128     0.971     0.3998
A_3     C     0.3186     0.2876     0.1628
A_2     C     0.8233     0.1098     0.1552
A_2     C     0.0821     0.2228     0.4439
A_3     C     0.1705     0.451     0.6008
A_3     C     0.1436     0.4915     0.8873
A_2     C     0.1881     0.8062     0.5196
A_3     C     0.7162     0.8453     0.9992
A_1     C     0.2057     0.218     0.1892
A_0     C     0.8488     0.5438     0.9949
A_0     C     0.6469     0.9608     0.7328
A_1     C     0.8243     0.9235     0.4432
A_1     C     0.9269     0.4952     0.2869
A_3     C     0.4878     0.7516     0.8982
A_1     C     0.1675     0.1482     0.8979
A_1     C     0.3303     0.2636     0.1034
A_0     C     0.2179     0.7447     0.9023
A_3     C     0.3439     0.2137     0.403
A_1     C     0.9838     0.493     0.2034
A_0     C     0.9547     0.5166     0.0422
A_3     C     0.2559     0.7685     0.9967
A_0     C     0.2073     0.4153     0.4363
A_0     C     0.152     0.6379     0.9228
A_2     C     0.9977     0.2548     0.0389
A_0     C     0.1591     0.4255     0.5994
A_0     C     0.5307     0.3321     0.7543
A_0     C     0.6635     0.1978     0.8661
A_1     C     0.3909     0.3652     0.8357
A_2     C     0.0846     0.1518     0.0222
A_3     C     0.383     0.9948     0.5882
A_1     C     0.9474     0.2303     0.3112
A_0     C     0.9923     0.0169     0.5484
A_0     C     0.1715     0.5118     0.3258
A_0     C     0.0649     0.7026     0.4412
A_3     C     0.5571     0.7644     0.5039
A_1     C     0.4522     0.5185     0.0939
A_0     C     0.3346     0.329     0.5329
A_0     C     0.5972     0.7185     0.973
A_1     C     0.1554     0.8978     0.9851
A_1     C     0.8779     0.0582     0.2922
A_1     C     0.4763     0.1095     0.1859
A_1     C     0.1716     0.7129     0.2522
A_0     C     0.7441     0.882     0.7445
A_2     C     0.5823     0.0845     0.9563
A_2     C     0.4873     0.1647     0.9629
A_0     C     0.9527     0.6138     0.143
A_0     C     0.3664     0.119     0.6386
A_0     C     0.4941     0.4832     0.0469
A_3     C     0.2411     0.3957     0.2501
A_0     C     0.4008     0.0827     0.2138
A_1     C     0.184     0.9841     0.7905
A_3     C     0.7589     0.8615     0.4307
A_2     C     0.7076     0.5384     0.3986
A_1     C     0.3556     0.2008     0.3133
A_1     C     0.4063     0.1438     0.606
A_0     C     0.3038     0.0281     0.9013
A_2     C     0.2305     0.7155     0.0136
A_0     C     0.1545     0.2399     0.9934
A_3     C     0.12     0.9859     0.6915
A_2     C     0.7057     0.9945     0.0818
A_0     C     0.2093     0.6008     0.2222
A_0     C     0.8195     0.9369     0.9213
A_0     C     0.1343     0.355     0.3205
A_2     C     0.2929     0.0532     0.8207
A_1     C     0.7685     0.0     0.7331
A_0     C     0.2423     0.3631     0.3196
A_2     C     0.466     0.0285     0.6664
A_0     C     0.4515     0.8408     0.6302
A_1     C     0.7217     0.522     0.9697
A_2     C     0.1711     0.1269     0.3558
A_2     C     0.2709     0.5085     0.43
A_2     C     0.7182     0.8161     0.1121
A_2     C     0.5034     0.1435     0.7801
A_1     C     0.3267     0.2178     0.2647
A_0     C     0.2649     0.7478     0.8469
A_3     C     0.6312     0.311     0.6487
A_0     C     0.4146     0.0879     0.6801
A_1     C     0.2888     0.5273     0.2921
A_2     C     0.3159     0.9878     0.8336
A_1     C     0.7412     0.2189     0.3416
A_1     C     0.7049     0.2167     0.9351
A_1     C     0.483     0.598     0.7759
A_3     C     0.4127     0.9322     0.6418
A_0     C     0.0794     0.2194     0.5854
A_0     C     0.5503     0.4172     0.9074
A_3     C     0.6012     0.7191     0.6823
A_2     C     0.5545     0.085     0.1949
A_0     C     0.8234     0.4614     0.7109
A_0     C     0.258     0.9896     0.0349
A_3     C     0.9531     0.6018     0.4445
A_1     C     0.5841     0.0842     0.4717
A_0     C     0.9104     0.3467     0.5546
A_3     C     0.6756     0.5635     0.3842
A_0     C     0.8399     0.4459     0.5426
A_3     C     0.1904     0.1887     0.6754
A_0     C     0.8347     0.5072     0.997
A_1     C     0.7869     0.0435     0.9197
A_1     C     0.1151     0.5632     0.1647
A_1     C     0.988     0.6387     0.115
A_3     C     0.3089     0.9647     0.3991
A_1     C     0.4571     0.1348     0.8842
A_3     C     0.7836     0.6287     0.0415
A_3     C     0.3621     0.628     0.0698
A_0     C     0.2014     0.9192     0.0811
A_0     C     0.7881     0.9652     0.7572
A_3     C     0.7488     0.5993     0.1212
A_2     C     0.6677     0.2844     0.1031
A_1     C     0.6294     0.3201     0.7405
A_1     C     0.0406     0.2246     0.1102
A_1     C     0.5297     0.4869     0.0413
A_1     C     0.1779     0.4132     0.4223
A_2     C     0.5499     0.3161     0.9349
A_2     C     0.4219     0.1533     0.357
A_2     C     0.3262     0.6616     0.2291
A_0     C     0.5764     0.8909     0.4664
A_1     C     0.8475     0.1595     0.3314
A_2     C     0.5013     0.0243     0.8456
A_2     C     0.7246     0.6173     0.1802
A_1     C     0.0256     0.7277     0.7548
A_3     C     0.2495     0.627     0.1447
A_0     C     0.8129     0.9135     0.3806
A_1     C     0.4267     0.6935     0.7361
A_1     C     0.2376     0.7146     0.1115
A_3     C     0.0733     0.1973     0.1664
A_0     C     0.0519     0.0038     0.9394
A_1     C     0.7495     0.0091     0.6677
A_3     C     0.6835     0.7854     0.1376
A_3     C     0.6996     0.9105     0.5936
A_1     C     0.6412     0.7534     0.0987
A_2     C     0.5903     0.1854     0.9076
A_0     C     0.2832     0.0474     0.5158
A_3     C     0.702     0.4417     0.5769
A_0     C     0.0155     0.6723     0.0123
A_2     C     0.6948     0.7227     0.1263
A_1     C     0.0986     0.7683     0.234
A_1     C     0.0379     0.6538     0.8578
A_0     C     0.7931     0.7467     0.5936
A_2     C     0.952     0.6149     0.443
A_1     C     0.8263     0.8793     0.0587
A_0     C     0.7979     0.5147     0.7063
A_2     C     0.7402     0.9247     0.0703
A_2     C     0.2289     0.9896     0.7879
A_3     C     0.2862     0.9027     0.9528
A_0     C     0.2135     0.2737     0.8124
A_2     C     0.3787     0.4677     0.0536
A_0     C     0.8098     0.46     0.0757
A_3     C     0.4121     0.0569     0.8933
A_0     C     0.5239     0.5564     0.8793
A_2     C     0.6679     0.4325     0.2159
A_2     C     0.3369     0.3921     0.3793
A_2     C     0.9255     0.2287     0.4371
A_3     C     0.793     0.053     0.6977
A_2     C     0.2094     0.6576     0.7258
A_2     C     0.4077     0.5955     0.5188
A_2     C     0.9271     0.1714     0.2177
A_0     C     0.3502     0.4458     0.2976
A_3     C     0.8727     0.1966     0.0101
A_2     C     0.6877     0.9758     0.0928
A_1     C     0.127     0.309     0.8539
A_1     C     0.2884     0.8549     0.8953
A_0     C     0.2769     0.6319     0.2272
A_3     C     0.864     0.9444     0.0318
A_1     C     0.4304     0.0766     0.9818
A_2     C     0.3284     0.1154     0.7576
A_1     C     0.2839     0.262     0.5587
A_0     C     0.3306     0.4772     0.3249
A_3     C     0.8098     0.9728     0.7159
A_1     C     0.1011     0.4692     0.1387
A_2     C     0.0015     0.248     0.9416
A_2     C     0.131     0.7288     0.4238
A_0     C     0.0857     0.9325     0.3447
A_1     C     0.6215     0.2525     0.4301
A_1     C     0.9618     0.4222     0.7055
A_1     C     0.1522     0.4064     0.8946
A_3     C     0.3997     0.5453     0.0775
A_0     C     0.7347     0.5699     0.1629
A_3     C     0.1876     0.0109     0.5824
A_0     C     0.4437     0.0033     0.0725
A_0     C     0.89     0.6634     0.8162
A_3     C     0.289     0.5242     0.5338
A_2     C     0.644     0.2032     0.0581
A_3     C     0.1688     0.3876     0.1608
A_1     C     0.6621     0.6601     0.9496
A_3     C     0.709     0.7571     0.3169
A_1     C     0.184     0.0291     0.0364
A_3     C     0.4205     0.7776     0.2221
A_2     C     0.3207     0.1504     0.9782
A_2     C     0.2777     0.1809     0.2504
A_2     C     0.8413     0.7896     0.397
A_0     C     0.5393     0.7576     0.7263
A_3     C     0.0735     0.9323     0.9973
A_2     C     0.6265     0.0416     0.9466
A_1     C     0.411     0.1182     0.8657
A_0     C     0.0673     0.4096     0.6695
A_0     C     0.5847     0.158     0.5728
A_2     C     0.604     0.9551     0.2634
A_2     C     0.6244     0.125     0.6592
A_1     C     0.6623     0.0061     0.3126
A_3     C     0.8758     0.5231     0.0857
A_3     C     0.7975     0.9897     0.0965
A_2     C     0.5334     0.0522     0.6682
A_3     C     0.8203     0.4745     0.5018
A_0     C     0.3906     0.8948     0.8214
A_2     C     0.6252     0.3532     0.1043
A_1     C     0.5853     0.9435     0.9144
A_2     C     0.5632     0.7739     0.2511
A_3     C     0.2749     0.4377     0.5041
A_3     C     0.9519     0.3035     0.1191
A_1     C     0.0937     0.0088     0.676
A_1     C     0.2277     0.4257     0.2255
A_3     C     0.6033     0.0681     0.9905
A_3     C     0.9279     0.8058     0.1534
A_0     C     0.8195     0.7463     0.5212
A_1     C     0.2556     0.9864     0.5869
A_2     C     0.6587     0.4928     0.2159
A_1     C     0.0908     0.6013     0.9666
A_1     C     0.4727     0.2222     0.9355
A_2     C     0.8651     0.6783     0.3967
A_1     C     0.0222     0.5208     0.6609
A_2     C     0.1459     0.6867     0.3574
A_1     C     0.6251     0.0961     0.9857
A_1     C     0.1063     0.6416     0.5841
A_1     C     0.9124     0.7133     0.3369
A_3     C     0.9953     0.1817     0.5164
A_2     C     0.1303     0.9992     0.7414
A_2     C     0.9109     0.4493     0.4669
A_2     C     0.44     0.8735     0.4197
A_3     C     0.988     0.612     0.8445
A_1     C     0.184     0.9425     0.0713
A_2     C     0.6813     0.0472     0.9845
A_1     C     0.18     0.3394     0.5866
A_3     C     0.8401     0.2356     0.533
A_3     C     0.7391     0.8561     0.6989
A_1     C     0.9108     0.8765     0.8068
A_3     C     0.395     0.9478     0.6672
A_3     C     0.596     0.3201     0.2835
A_2     C     0.9058     0.9438     0.1507
A_1     C     0.9336     0.2664     0.7053
A_3     C     0.2362     0.3199     0.3399
A_2     C     0.5096     0.0049     0.6229
A_1     C     0.5353     0.9127     0.8008
A_0     C     0.0999     0.1294     0.7252
A_0     C     0.8019     0.4291     0.9626
A_1     C     0.4736     0.1726     0.8492
A_1     C     0.84     0.4458     0.0502
A_0     C     0.3692     0.2732     0.2132
A_0     C     0.0682     0.1984     0.2753
A_2     C     0.7077     0.0221     0.723
A_1     C     0.7303     0.7554     0.9449
A_0     C     0.131     0.532     0.2904
A_2     C     0.5829     0.7707     0.8568
A_1     C     0.2148     0.7518     0.1578
A_1     C     0.3462     0.3568     0.8224
A_1     C     0.7945     0.6231     0.0403
A_2     C     0.4465     0.1364     0.272
A_2     C     0.0616     0.6931     0.7027
A_2     C     0.1913     0.6046     0.1632
A_2     C     0.9113     0.9735     0.5792
A_0     C     0.4027     0.7714     0.4964
A_2     C     0.2354     0.5047     0.8498
A_3     C     0.2566     0.3576     0.7632
A_0     C     0.8311     0.8611     0.0336
A_0     C     0.7188     0.7266     0.6642
A_2     C     0.3847     0.9622     0.848
A_2     C     0.07     0.5881     0.2731
A_0     C     0.7074     0.8369     0.5328
A_0     C     0.4345     0.8406     0.0892
A_3     C     0.8819     0.1759     0.6813
A_2     C     0.9172     0.1574     0.6956
A_1     C     0.8881     0.4955     0.3742
A_3     C     0.4281     0.1611     0.8787
A_2     C     0.2265     0.6056     0.2673
A_3     C     0.1831     0.3637     0.027
A_2     C     0.3805     0.1741     0.4409
A_3     C     0.9702     0.5916     0.5581
A_2     C     0.1204     0.5612     0.2629
A_1     C     0.9528     0.3991     0.1249
A_0     C     0.2295     0.4328     0.3345
A_3     C     0.7035     0.4399     0.5799
A_0     C     0.546     0.1566     0.0795
A_0     C     0.1464     0.447     0.0613
A_2     C     0.098     0.0995     0.1448
A_0     C     0.4108     0.8486     0.0032
A_2     C     0.2759     0.5206     0.6175
A_0     C     0.9748     0.2879     0.2645
A_0     C     0.6466     0.2226     0.0067
A_1     C     0.6574     0.7293     0.353
A_0     C     0.2692     0.2285     0.2951
A_2     C     0.7613     0.3285     0.7576
A_0     C     0.2669     0.5973     0.1978
A_0     C     0.2046     0.0953     0.846
A_0     C     0.5649     0.7926     0.7409
A_3     C     0.472     0.7833     0.6649
A_3     C     0.2397     0.2315     0.989
A_1     C     0.4288     0.14     0.9036
A_3     C     0.1733     0.2248     0.622
A_0     C     0.6952     0.4702     0.4046
A_2     C     0.0013     0.3256     0.7498
A_0     C     0.7989     0.9703     0.9675
A_3     C     0.7529     0.7792     0.5172
A_2     C     0.3034     0.7644     0.178
A_1     C     0.0882     0.4099     0.8044
A_0     C     0.7223     0.3266     0.1167
A_3     C     0.425     0.5695     0.1442
A_1     C     0.4562     0.6067     0.8436
A_2     C     0.0569     0.9571     0.2641
A_0     C     0.5406     0.2062     0.0055
A_1     C     0.4083     0.6735     0.012
A_0     C     0.3628     0.4928     0.673
A_1     C     0.1012     0.5731     0.1162
A_0     C     0.5122     0.0243     0.5858
A_2     C     0.6019     0.4154     0.531
A_1     C     0.1797     0.7543     0.4586
A_1     C     0.4245     0.3413     0.1924
A_0     C     0.6245     0.135     0.5303
A_2     C     0.5176     0.1292     0.3058
A_3     C     0.7004     0.1807     0.8622
A_0     C     0.7808     0.0146     0.5981
A_0     C     0.2283     0.7306     0.3627
A_3     C     0.0614     0.8971     0.7203
A_1     C     0.1841     0.9468     0.4849
A_0     C     0.8104     0.2696     0.1317
A_3     C     0.0528     0.1558     0.4188
A_2     C     0.2768     0.271     0.8767
A_1     C     0.7672     0.6392     0.1652
A_2     C     0.128     0.6846     0.4248
A_0     C     0.6488     0.1707     0.9131
A_2     C     0.1524     0.1704     0.5766
A_1     C     0.2044     0.2472     0.0942
A_2     C     0.2048     0.435     0.9511
A_3     C     0.0376     0.6867     0.642
A_2     C     0.35     0.1085     0.7867
A_1     C     0.0903     0.315     0.9823
A_1     C     0.0566     0.4216     0.632
A_0     C     0.7939     0.9976     0.3205
A_0     C     0.6372     0.8673     0.9382
A_3     C     0.0102     0.1818     0.5965
A_0     C     0.0612     0.0902     0.8334
A_2     C     0.7936     0.9889     0.0393
A_1     C     0.5297     0.5994     0.4241
A_0     C     0.64     0.121     0.4892
A_3     C     0.3641     0.475     0.6166
A_2     C     0.3511     0.5429     0.1166
A_3     C     0.5449     0.5426     0.9031
A_2     C     0.0779     0.8571     0.7731
A_0     C     0.5684     0.5526     0.1028
A_3     C     0.7176     0.5431     0.4837
A_3     C     0.6478     0.6202     0.9047
A_0     C     0.7297     0.9464     0.1193
A_2     C     0.3832     0.7082     0.9974
A_3     C     0.3361     0.9801     0.8865
A_3     C     0.4526     0.8262     0.0223
A_0     C     0.0927     0.383     0.5962
A_0     C     0.9659     0.1429     0.122
A_2     C     0.0339     0.1772     0.2243
A_1     C     0.935     0.3113     0.3367
A_1     C     0.5926     0.926     0.9925
A_2     C     0.7132     0.0248     0.215
A_0     C     0.1837     0.5394     0.8258
A_2     C     0.2323     0.3742     0.4979
A_0     C     0.8457     0.692     0.4947
A_2     C     0.6291     0.6463     0.5537
A_3     C     0.1894     0.0237     0.0919
A_2     C     0.8802     0.5658     0.4396
A_0     C     0.0419     0.5411     0.9024
A_2     C     0.5235     0.1716     0.9553
A_1     C     0.8158     0.1858     0.8015
A_0     C     0.3247     0.2342     0.6979
A_0     C     0.1121     0.2419     0.2574
A_3     C     0.9396     0.775     0.2057
A_1     C     0.3512     0.4581     0.5336
A_1     C     0.6104     0.241     0.5745
A_3     C     0.2619     0.5014     0.7029
A_1     C     0.502     0.4478     0.5948
A_2     C     0.9861     0.6963     0.698
A_1     C     0.2705     0.2448     0.8788
A_1     C     0.9142     0.5013     0.073
A_2     C     0.6164     0.6407     0.9471
A_2     C     0.6511     0.8338     0.5608
A_0     C     0.8716     0.0824     0.1111
A_2     C     0.7988     0.1525     0.1177
A_2     C     0.031     0.0462     0.5679
A_0     C     0.723     0.8941     0.3616
A_2     C     0.4709     0.0985     0.0643
A_3     C     0.4698     0.6621     0.993
A_3     C     0.5563     0.0257     0.5564
A_0     C     0.8365     0.764     0.7644
A_2     C     0.2899     0.3955     0.9521
A_1     C     0.9285     0.9961     0.4764
A_3     C     0.6001     0.3538     0.4482
A_1     C     0.5476     0.6493     0.1813
A_2     C     0.142     0.6888     0.9279
A_2     C     0.1661     0.9309     0.791
A_2     C     0.4492     0.8439     0.3149
A_1     C     0.304     0.8896     0.6683
A_2     C     0.0823     0.5282     0.7374
A_3     C     0.3389     0.8446     0.3085
A_3     C     0.9115     0.3303     0.3417
A_2     C     0.2666     0.7985     0.9184
A_1     C     0.007     0.8158     0.7756
A_3     C     0.0346     0.7529     0.8757
A_0     C     0.9001     0.9866     0.072
A_3     C     0.236     0.6788     0.3206
A_3     C     0.3067     0.8537     0.8689
A_3     C     0.0691     0.1206     0.1962
A_0     C     0.9483     0.5771     0.8442
A_1     C     0.1086     0.2138     0.9217
A_3     C     0.031     0.1332     0.1405
A_3     C     0.5031     0.1687     0.1102
A_2     C     0.534     0.4453     0.8171
A_0     C     0.3175     0.3293     0.2951
A_1     C     0.2833     0.8169     0.5593
A_1     C     0.0599     0.5828     0.7036
A_2     C     0.2665     0.874     0.5993
A_2     C     0.8941     0.6244     0.1935
A_3     C     0.4862     0.4828     0.8348
A_2     C     0.0817     0.2193     0.0569
A_1     C     0.1837     0.5347     0.267
A_2     C     0.117     0.7734     0.2438
A_2     C     0.2941     0.838     0.2845
A_1     C     0.176     0.4601     0.9758
A_1     C     0.8121     0.5327     0.7516
A_2     C     0.4247     0.6583     0.8035
A_1     C     0.4682     0.6577     0.6525
A_2     C     0.4419     0.7246     0.3301
A_3     C     0.9343     0.454     0.2235
A_3     C     0.8649     0.931     0.412
A_1     C     0.4284     0.8655     0.0439
A_1     C     0.4109     0.9868     0.4532
A_3     C     0.347     0.4951     0.336
A_2     C     0.9713     0.6602     0.4815
A_2     C     0.1557     0.0723     0.9715
A_1     C     0.5031     0.7709     0.654
A_3     C     0.9735     0.0367     0.4881
A_3     C     0.0369     0.5222     0.1488
A_3     C     0.5078     0.3155     0.2071
A_3     C     0.8096     0.4783     0.8411
A_2     C     0.8803     0.1434     0.7391
A_1     C     0.1341     0.3775     0.1841
A_2     C     0.1457     0.9631     0.3831
A_0     C     0.4372     0.7733     0.1701
A_0     C     0.7824     0.0652     0.0376
A_0     C     0.6361     0.2692     0.4056
A_2     C     0.3485     0.8889     0.8938
A_2     C     0.7948     0.7492     0.6469
A_0     C     0.5569     0.1002     0.7619
A_1     C     0.849     0.1585     0.9938
A_0     C     0.1074     0.9578     0.7794
A_0     C     0.4749     0.5451     0.3161
A_3     C     0.4166     0.9319     0.8423
A_1     C     0.6756     0.9744     0.4285
A_0     C     0.8425     0.4681     0.7592
A_2     C     0.9198     0.929     0.7354
A_0     C     0.9434     0.1462     0.8253
A_0     C     0.0952     0.3711     0.421
A_1     C     0.4771     0.5294     0.5469
A_3     C     0.8132     0.3548     0.6261
A_2     C     0.2904     0.409     0.24
A_0     C     0.9683     0.4974     0.4184
A_0     C     0.9999     0.5728     0.7866
A_2     C     0.5328     0.7794     0.4801
A_2     C     0.7217     0.8735     0.5597
A_1     C     0.2333     0.4184     0.6964
A_2     C     0.2356     0.3515     0.4074
A_3     C     0.5604     0.3916     0.6506
A_3     C     0.8708     0.0233     0.1186
A_1     C     0.9727     0.8327     0.1855
A_3     C     0.5333     0.7065     0.3087
A_2     C     0.0293     0.6626     0.9805
A_1     C     0.9467     0.3635     0.1512
A_0     C     0.6692     0.5263     0.7234
A_2     C     0.4425     0.1788     0.1364
A_1     C     0.8529     0.2595     0.8092
A_0     C     0.9454     0.8354     0.4054
A_0     C     0.6517     0.3474     0.3764
A_1     C     0.4219     0.6329     0.2446
A_2     C     0.8389     0.3469     0.3225
A_1     C     0.3373     0.0481     0.8381
A_3     C     0.0325     0.0887     0.0684
A_1     C     0.3741     0.4742     0.6721
A_0     C     0.8457     0.2838     0.0268
A_2     C     0.3017     0.8202     0.503
A_3     C     0.208     0.4153     0.2012
A_1     C     0.7586     0.8727     0.3572
A_1     C     0.7121     0.2821     0.1401
A_3     C     0.0212     0.2869     0.8901
A_0     C     0.4714     0.8701     0.3207
A_3     C     0.9618     0.1612     0.1883
A_1     C     0.1874     0.4952     0.0842
A_1     C     0.6592     0.4926     0.518
A_1     C     0.7294     0.9415     0.5419
A_0     C     0.2736     0.6236     0.8087
A_2     C     0.4017     0.7883     0.6514
A_3     C     0.7274     0.2031     0.1528
A_2     C     0.2279     0.9772     0.2694
A_0     C     0.0755     0.9319     0.6639
A_0     C     0.0952     0.9135     0.4379
A_1     C     0.5599     0.6114     0.6343
A_3     C     0.197     0.5329     0.5498
A_3     C     0.9     0.6391     0.526
A_1     C     0.9153     0.4629     0.774
A_3     C     0.5665     0.0297     0.1626
A_1     C     0.8737     0.8999     0.7431
A_3     C     0.6624     0.3441     0.405
A_0     C     0.4733     0.9641     0.1549
A_0     C     0.0599     0.3579     0.3417
A_1     C     0.8952     0.2475     0.2069
A_2     C     0.1722     0.5905     0.4233
A_0     C     0.4922     0.0087     0.1694
A_1     C     0.3996     0.6509     0.1129
A_1     C     0.7768     0.0593     0.4514
A_0     C     0.0154     0.3959     0.6644
A_1     C     0.7882     0.7482     0.541
A_1     C     0.2415     0.5614     0.1207
A_3     C     0.3904     0.0723     0.0407
A_3     C     0.4056     0.9762     0.1061
A_2     C     0.8374     0.9412     0.6277
A_2     C     0.3802     0.3156     0.7965
A_0     C     0.7633     0.4337     0.7726
A_3     C     0.5112     0.612     0.4782
A_3     C     0.7385     0.8583     0.7646
A_1     C     0.9496     0.3168     0.9053
A_2     C     0.0352     0.6385     0.8401
A_0     C     0.6965     0.7766     0.2728
A_0     C     0.0002     0.6577     0.6246
A_0     C     0.6319     0.1245     0.4787
A_2     C     0.3083     0.2457     0.5784
A_3     C     0.4524     0.3738     0.0378
A_3     C     0.3745     0.5061     0.8287
A_1     C     0.3545     0.6312     0.0749
A_3     C     0.5331     0.9265     0.7805
A_0     C     0.2794     0.401     0.0468
A_0     C     0.7912     0.6352     0.0037
A_2     C     0.859     0.3448     0.858
A_1     C     0.73     0.639     0.7822
A_0     C     0.6607     0.4264     0.2755
A_0     C     0.8958     0.8343     0.4578
A_0     C     0.8357     0.8264     0.2559
A_0     C     0.1952     0.6526     0.8873
A_0     C     0.9105     0.264     0.5381
A_1     C     0.5882     0.3889     0.6856
A_0     C     0.196     0.5456     0.2747
A_0     C     0.3914     0.7652     0.5584
A_3     C     0.3997     0.3942     0.7131
A_3     C     0.9189     0.4337     0.4363
A_3     C     0.7188     0.3599     0.5797
A_3     C     0.1693     0.5801     0.5881
A_0     C     0.1061     0.6546     0.3247
A_3     C     0.8356     0.382     0.435
A_1     C     0.805     0.476     0.0668
A_0     C     0.5666     0.3083     0.7869
A_3     C     0.7697     0.3734     0.82
A_2     C     0.6026     0.9607     0.3881
A_1     C     0.5702     0.7097     0.0405
A_1     C     0.4028     0.5534     0.7851
A_0     C     0.5314     0.9889     0.5226
A_2     C     0.8863     0.0927     0.3183
A_1     C     0.2527     0.7858     0.7533
A_0     C     0.5396     0.202     0.3486
A_2     C     0.3934     0.2306     0.4649
A_2     C     0.3177     0.2566     0.8025
A_2     C     0.9899     0.1618     0.6739
A_3     C     0.4287     0.101     0.7893
A_2     C     0.6375     0.8284     0.2666
A_1     C     0.5536     0.4592     0.1963
A_2     C     0.7683     0.9218     0.3591
A_2     C     0.4635     0.273     0.2503
A_3     C     0.3207     0.5624     0.5461
A_1     C     0.1816     0.6125     0.2561
A_1     C     0.5458     0.9012     0.638
A_2     C     0.4112     0.7312     0.5128
A_2     C     0.6344     0.4598     0.4543
A_1     C     0.4538     0.6515     0.6465
A_0     C     0.4055     0.8899     0.357
A_1     C     0.432     0.3546     0.6014
A_3     C     0.5952     0.5378     0.5447
A_0     C     0.4815     0.8342     0.262
A_0     C     0.5125     0.5528     0.8712
A_3     C     0.7464     0.3845     0.8214
A_1     C     0.2902     0.3246     0.2302
A_1     C     0.5234     0.5252     0.1392
A_2     C     0.5942     0.9948     0.7118
A_1     C     0.7883     0.564     0.3761
A_1     C     0.8083     0.2137     0.3375
A_1     C     0.8562     0.7949     0.937
A_1     C     0.9738     0.334     0.1073
A_3     C     0.7876     0.2469     0.057
A_0     C     0.2868     0.6688     0.9389
A_3     C     0.5646     0.1608     0.7705
A_3     C     0.3452     0.9923     0.9035
A_0     C     0.868     0.1773     0.3985
A_3     C     0.1376     0.8138     0.3507
A_2     C     0.139     0.4926     0.7601
A_0     C     0.007     0.3057     0.7351
A_2     C     0.395     0.4334     0.5593
A_1     C     0.8061     0.7816     0.2441
A_1     C     0.1599     0.977     0.9855
A_3     C     0.8555     0.4403     0.7024
A_2     C     0.4547     0.7718     0.8417
A_2     C     0.2152     0.3081     0.7335
A_0     C     0.4708     0.0853     0.8314
A_1     C     0.6136     0.7862     0.1802
A_2     C     0.0299     0.9284     0.9001
A_1     C     0.7831     0.0786     0.3764
A_0     C     0.4876     0.8274     0.9918
A_1     C     0.8467     0.1849     0.3228
A_3     C     0.6122     0.9873     0.2352
A_2     C     0.4262     0.8952     0.2031
A_1     C     0.9356     0.5236     0.5905
A_0     C     0.2378     0.3437     0.4485
A_0     C     0.6614     0.5298     0.1011
A_3     C     0.1283     0.5695     0.4442
A_3     C     0.4619     0.8959     0.9755
A_2     C     0.759     0.9701     0.0498
A_1     C     0.9034     0.6889     0.7624
A_1     C     0.0425     0.7369     0.3841
A_1     C     0.2115     0.3042     0.1249
A_1     C     0.8253     0.5161     0.6468
A_2     C     0.3169     0.4223     0.3298
A_2     C     0.6525     0.77     0.3066
A_0     C     0.4388     0.9435     0.5519
A_2     C     0.206     1.0     0.2792
A_3     C     0.2225     0.7646     0.1069
A_0     C     0.695     0.2364     0.8936
A_2     C     0.7481     0.9775     0.4467
A_0     C     0.7652     0.5465     0.4644
A_2     C     0.9996     0.8138     0.632
A_1     C     0.0124     0.9306     0.9735
A_2     C     0.6811     0.3771     0.3412
A_2     C     0.5896     0.6787     0.8916
A_2     C     0.5269     0.9744     0.5133
A_1     C     0.3661     0.8989     0.3712
A_1     C     0.0201     0.4209     0.9869
A_0     C     0.0909     0.3059     0.9011
A_0     C     0.072     0.4893     0.261
A_0     C     0.3033     0.427     0.5051
A_2     C     0.3567     0.6715     0.8457
A_3     C     0.9764     0.9599     0.0489
A_2     C     0.0601     0.8787     0.5221
A_2     C     0.6027     0.6987     0.9104
A_3     C     0.6102     0.7941     0.8196
A_3     C     0.7915     0.4551     0.3007
A_1     C     0.0686     0.9484     0.9575
A_0     C     0.338     0.6895     0.5865
A_1     C     0.2845     0.7723     0.6179
A_1     C     0.849     0.7255     0.1428
A_1     C     0.3805     0.075     0.5644
A_1     C     0.7255     0.2873     0.4436
A_1     C     0.0403     0.1207     0.2662
A_2     C     0.46     0.4111     0.6198
A_3     C     0.7678     0.6552     0.0423
A_2     C     0.8085     0.1424     0.8198
A_0     C     0.9438     0.5113     0.2782
A_2     C     0.1853     0.5461     0.4139
A_0     C     0.5548     0.3828     0.936
A_3     C     0.0792     0.9904     0.6855
A_1     C     0.5592     0.2583     0.0881
A_2     C     0.0399     0.7562     0.0045
A_3     C     0.8758     0.5672     0.4938
A_1     C     0.1543     0.8975     0.6266
A_1     C     0.9815     0.5334     0.9076
A_3     C     0.4673     0.2805     0.7151
A_3     C     0.301     0.1686     0.8709
A_3     C     0.791     0.3943     0.9755
A_3     C     0.2882     0.7636     0.1146
A_3     C     0.366     0.4689     0.2719
A_1     C     0.881     0.6211     0.9853
A_0     C     0.4763     0.9787     0.2863
A_3     C     0.1712     0.2323     0.2838
A_2     C     0.9953     0.8972     0.8494
A_0     C     0.5372     0.5542     0.9372
A_2     C     0.8141     0.4536     0.2596
A_0     C     0.2994     0.4494     0.4859
A_0     C     0.9042     0.0209     0.0795
A_3     C     0.6279     0.1945     0.1046
A_3     C     0.2393     0.8078     0.2167
A_0     C     0.2068     0.6571     0.3213
A_1     C     0.2433     0.311     0.8915
A_0     C     0.1977     0.1158     0.5667
A_3     C     0.2244     0.714     0.9358
A_0     C     0.7727     0.3462     0.6084
A_0     C     0.193     0.5741     0.1464
A_2     C     0.3115     0.6912     0.9418
A_3     C     0.3276     0.8801     0.7617
A_3     C     0.4749     0.5453     0.928
A_2     C     0.5427     0.4925     0.1271
A_2     C     0.1962     0.272     0.8478
A_2     C     0.1912     0.2908     0.8168
A_0     C     0.8162     0.1536     0.4755
A_3     C     0.9489     0.5292     0.5286
A_2     C     0.198     0.0122     0.5271
A_0     C     0.9002     0.1563     0.9428
A_0     C     0.4098     0.7209     0.9364
A_1     C     0.3314     0.6204     0.7282
A_0     C     0.533     0.4357     0.5844
A_3     C     0.0907     0.3393     0.2101
A_0     C     0.2522     0.4742     0.1864
A_0     C     0.0252     0.0208     0.1241
A_1     C     0.8543     0.8355     0.0636
A_1     C     0.8811     0.0985     0.8262
A_2     C     0.2668     0.9935     0.3717
A_0     C     0.2263     0.1041     0.0468
A_2     C     0.7241     0.7938     0.7454
A_2     C     0.7285     0.9943     0.0555
A_1     C     0.3609     0.6915     0.6457
A_1     C     0.5621     0.0435     0.7243
A_1     C     0.4202     0.716     0.0248
A_2     C     0.2707     0.1118     0.6536
A_2     C     0.3937     0.5938     0.4547
A_2     C     0.6137     0.7942     0.285
A_1     C     0.0084     0.5491     0.0211
A_3     C     0.0477     0.0155     0.6194
A_2     C     0.0134     0.0816     0.6262
A_1     C     0.1135     0.9162     0.5075
A_3     C     0.834     0.9307     0.9917
A_0     C     0.3221     0.4394     0.1172
A_2     C     0.0215     0.2299     0.8147
A_3     C     0.5258     0.1103     0.6397
A_0     C     0.3433     0.597     0.3608
A_0     C     0.5111     0.9148     0.2697
A_2     C     0.8724     0.0068     0.8172
A_2     C     0.5255     0.5079     0.0003
A_1     C     0.8707     0.1199     0.3605
A_1     C     0.0178     0.7586     0.5413
A_1     C     0.0255     0.8289     0.5736
A_0     C     0.5977     0.5725     0.0882
A_1     C     0.9853     0.4779     0.9625
A_0     C     0.5466     0.5271     0.9331
A_3     C     0.6585     0.6183     0.9527
A_0     C     0.0696     0.7055     0.768
A_3     C     0.7485     0.6942     0.8978
A_1     C     0.1297     0.75     0.9097
A_2     C     0.45     0.1788     0.209
A_1     C     0.4723     0.2198     0.4525
A_1     C     0.4808     0.7326     0.7242
A_1     C     0.2112     0.0749     0.4898
A_3     C     0.5775     0.0946     0.1221
A_3     C     0.4599     0.3256     0.1738
A_2     C     0.8069     0.3429     0.1078
A_3     C     0.9034     0.0327     0.2529
A_2     C     0.7053     0.0624     0.037
A_0     C     0.8629     0.0106     0.5278
A_1     C     0.9902     0.2741     0.7367
A_0     C     0.3865     0.7423     0.1414
A_1     C     0.4808     0.9     0.0144
A_2     C     0.0027     0.3927     0.2307
A_1     C     0.3158     0.3089     0.8222
A_1     C     0.9973     0.7592     0.1031
A_1     C     0.1768     0.7884     0.1997
A_1     C     0.4924     0.3168     0.4184
A_0     C     0.322     0.9529     0.6462
A_0     C     0.6422     0.5098     0.4816
A_2     C     0.5276     0.9827     0.6644
A_0     C     0.5614     0.329     0.7531
A_2     C     0.8197     0.8982     0.3458
A_1     C     0.6484     0.8849     0.0574
A_3     C     0.4665     0.8133     0.7711
A_0     C     0.5541     0.0067     0.9872
A_2     C     0.7868     0.7757     0.0476
A_2     C     0.8292     0.6966     0.2958
A_0     C     0.4158     0.2901     0.2743
A_0     C     0.3299     0.5675     0.0113
A_2     C     0.2167     0.7941     0.4292
A_1     C     0.4077     0.5381     0.811
A_2     C     0.8396     0.0703     0.9375
A_1     C     0.3939     0.3403     0.836
A_1     C     0.4979     0.4959     0.0788
A_3     C     0.3844     0.1451     0.4502
A_2     C     0.6341     0.151     0.0059
A_3     C     0.2813     0.3948     0.1798
A_2     C     0.1448     0.8808     0.6349
A_0     C     0.6861     0.4769     0.949
A_0     C     0.2327     0.7976     0.9812
A_2     C     0.5463     0.0522     0.8449
A_3     C     0.3811     0.7928     0.0977
A_2     C     0.878     0.9344     0.5377
A_3     C     0.431     0.9889     0.9237
A_3     C     0.7097     0.8173     0.1292
A_0     C     0.2786     0.815     0.4214
A_0     C     0.2526     0.3833     0.6353
A_3     C     0.0383     0.8768     0.6751
A_1     C     0.833     0.4126     0.1489
A_2     C     0.7957     0.3252     0.4679
A_2     C     0.0578     0.77     0.0552
A_1     C     0.925     0.4145     0.1834
A_1     C     0.0655     0.6519     0.2443
A_3     C     0.0059     0.1083     0.5575
A_0     C     0.6768     0.8074     0.6615
A_0     C     0.7305     0.5843     0.7187
A_0     C     0.3264     0.3821     0.7168
A_3     C     0.0159     0.7359     0.9757
A_2     C     0.0827     0.8334     0.5272
A_2     C     0.649     0.4139     0.3105
A_3     C     0.1235     0.3562     0.1243
A_3     C     0.3803     0.1018     0.166
A_1     C     0.1859     0.1532     0.5675
A_0     C     0.7594     0.7873     0.0826
A_2     C     0.144     0.5822     0.7141
A_3     C     0.6839     0.3238     0.454
A_3     C     0.6975     0.1648     0.3121
A_1     C     0.37     0.0662     0.7534
A_0     C     0.673     0.5772     0.4786
A_0     C     0.3536     0.1785     0.0591
A_3     C     0.3528     0.4662     0.0717
A_2     C     0.1344     0.829     0.8545
A_3     C     0.3035     0.4668     0.2069
A_2     C     0.2974     0.3188     0.7654
A_3     C     0.2716     0.9478     0.258
A_3     C     0.928     0.2102     0.8614
A_0     C     0.3482     0.2532     0.8574
A_0     C     0.6844     0.1625     0.3655
A_2     C     0.3141     0.6103     0.7266
A_2     C     0.9697     0.8059     0.3994
A_3     C     0.7431     0.63     0.8214
A_1     C     0.7936     0.7315     0.8325
A_0     C     0.4248     0.4644     0.6075
A_1     C     0.3263     0.5695     0.3118
A_2     C     0.0525     0.1821     0.1706
A_2     C     0.0166     0.778     0.8008
A_0     C     0.3357     0.4556     0.2828
A_1     C     0.6347     0.4315     0.3317
A_1     C     0.6538     0.7817     0.2677
A_2     C     0.4312     0.3226     0.4682
A_2     C     0.6141     0.8573     0.255
A_3     C     0.1372     0.648     0.0608
A_2     C     0.2491     0.7117     0.0089
A_0     C     0.5896     0.962     0.7166
A_0     C     0.5015     0.3896     0.4377
A_2     C     0.9747     0.4978     0.6943
A_3     C     0.2499     0.4154     0.8835
A_3     C     0.8809     0.7369     0.3322
A_1     C     0.1647     0.4414     0.4093
A_3     C     0.6761     0.9467     0.0162
A_0     C     0.3753     0.0563     0.0113
A_0     C     0.6302     0.8519     0.5661
A_3     C     0.87     0.8697     0.2565
A_3     C     0.4715     0.0819     0.2462
A_0     C     0.3304     0.0489     0.4802
A_2     C     0.3588     0.0019     0.7523
A_0     C     0.9429     0.0812     0.7498
A_1     C     0.8178     0.3008     0.6255
A_0     C     0.488     0.2414     0.5817
A_2     C     0.4516     0.2662     0.7551
A_1     C     0.4796     0.3566     0.0249
A_2     C     0.6922     0.9426     0.7967
A_3     C     0.6783     0.7368     0.0643
A_0     C     0.0172     0.6121     0.6352
A_2     C     0.7649     0.0385     0.5326
A_0     C     0.6472     0.5435     0.317
A_2     C     0.1451     0.4367     0.0457
A_3     C     0.7404     0.4965     0.5782
A_2     C     0.1202     0.5156     0.1035
A_2     C     0.1598     0.5457     0.7973
A_3     C     0.0294     0.5403     0.009
A_0     C     0.8588     0.1411     0.3068
A_1     C     0.8721     0.3408     0.5639
A_1     C     0.3388     0.9223     0.8664
A_2     C     0.5129     0.0931     0.1005
A_1     C     0.2546     0.5754     0.7005
A_2     C     0.5226     0.2182     0.4369
A_2     C     0.5689     0.2362     0.3226
A_0     C     0.7087     0.4286     0.8465
A_2     C     0.1242     0.048     0.0519
A_0     C     0.295     0.1002     0.4692
A_0     C     0.0701     0.7188     0.5866
A_3     C     0.5554     0.543     0.5359
A_1     C     0.833     0.71     0.3468
A_0     C     0.0532     0.2546     0.1321
A_2     C     0.8814     0.9432     0.1273
A_3     C     0.3015     0.2828     0.3313
A_2     C     0.2468     0.2339     0.3574
A_3     C     0.0197     0.6337     0.9739
A_0     C     0.4378     0.9754     0.1007
A_0     C     0.0194     0.7281     0.5774
A_1     C     0.8452     0.4596     0.5695
A_0     C     0.3768     0.1223     0.8173
A_0     C     0.1901     0.643     0.8118
A_2     C     0.078     0.9766     0.1352
A_3     C     0.3104     0.437     0.5275
A_1     C     0.665     0.3536     0.693
A_1     C     0.7367     0.7919     0.8683
A_3     C     0.6988     0.0234     0.0349
A_1     C     0.4354     0.2991     0.1435
A_2     C     0.0816     0.0083     0.1365
A_1     C     0.8141     0.6681     0.868
A_2     C     0.5595     0.1976     0.4549
A_2     C     0.427     0.0651     0.0716
A_2     C     0.3513     0.7305     0.2775
A_1     C     0.8744     0.198     0.1755
A_1     C     0.4034     0.3535     0.0653
A_3     C     0.9267     0.966     0.8623
A_0     C     0.0102     0.7882     0.232
A_0     C     0.6731     0.8604     0.9229
A_3     C     0.7538     0.1108     0.0312
A_2     C     0.282     0.4589     0.3549
A_1     C     0.1281     0.4037     0.457
A_0     C     0.5581     0.6318     0.5093
A_2     C     0.4034     0.628     0.7721
A_2     C     0.3291     0.8435     0.23
A_1     C     0.593     0.4588     0.9351
A_2     C     0.428     0.1895     0.2202
A_0     C     0.7261     0.7311     0.8316
A_0     C     0.6283     0.6297     0.9566
A_0     C     0.6593     0.8167     0.704
A_3     C     0.8432     0.8977     0.5079
A_2     C     0.247     0.1859     0.4841
A_0     C     0.0848     0.6601     0.9862
A_1     C     0.3493     0.4471     0.6412
A_1     C     0.614     0.7356     0.9387
A_1     C     0.9839     0.9391     0.1605
A_0     C     0.7284     0.9226     0.7141
A_3     C     0.651     0.963     0.7318
A_2     C     0.6732     0.3441     0.7605
A_1     C     0.3618     0.3156     0.7729
A_1     C     0.258     0.1381     0.208
A_1     C     0.6756     0.6376     0.1548
A_2     C     0.8793     0.4641     0.0343
A_0     C     0.5004     0.1688     0.9109
A_0     C     0.1969     0.103     0.1198
A_3     C     0.923     0.079     0.0218
A_3     C     0.7841     0.2486     0.1415
A_2     C     0.3889     0.5874     0.1442
A_1     C     0.4996     0.7308     0.3876
A_1     C     0.1622     0.7367     0.9718
A_3     C     0.5498     0.2913     0.7957
A_0     C     0.3057     0.1111     0.3737
A_2     C     0.2253     0.9956     0.7786
A_2     C     0.2039     0.4429     0.1409
A_2     C     0.7799     0.6944     0.009
A_1     C     0.0488     0.0195     0.7283
A_1     C     0.9649     0.939     0.2798
A_2     C     0.1822     0.9264     0.2492
A_0     C     0.5885     0.5266     0.2436
A_0     C     0.5863     0.3936     0.5818
A_1     C     0.421     0.7348     0.7058
A_2     C     0.3122     0.9535     0.0869
A_1     C     0.8287     0.101     0.4454
A_2     C     0.8584     0.1939     0.0875
A_3     C     0.5163     0.8786     0.34
A_2     C     0.2625     0.2046     0.7774
A_3     C     0.9035     0.7703     0.4485
A_1     C     0.8541     0.4574     0.3351
A_1     C     0.1872     0.7225     0.7985
A_0     C     0.7642     0.6215     0.1054
A_0     C     0.6331     0.3392     0.1866
A_1     C     0.9797     0.3125     0.1174
A_2     C     0.7035     0.3301     0.5903
A_3     C     0.0446     0.4071     0.7575
A_3     C     0.4595     0.0573     0.9342
A_1     C     0.7296     0.3086     0.959
A_1     C     0.5395     0.4192     0.8313
A_0     C     0.9626     0.9268     0.0209
A_2     C     0.3558     0.553     0.9002
A_2     C     0.3342     0.3099     0.2785
A_2     C     0.2263     0.3224     0.5573
A_3     C     0.7798     0.7111     0.5673
A_1     C     0.8804     0.3152     0.2868
A_1     C     0.3783     0.3648     0.0374
A_3     C     0.4709     0.5095     0.8231
A_3     C     0.4051     0.2006     0.2459
A_0     C     0.1402     0.1026     0.4396
A_2     C     0.8202     0.2796     0.8254
A_2     C     0.2021     0.0558     0.1079
A_2     C     0.6205     0.0308     0.9063
A_2     C     0.6773     0.8256     0.4324
A_3     C     0.7441     0.5463     0.5344
A_0     C     0.9395     0.395     0.7812
A_1     C     0.4955     0.0633     0.5466
A_3     C     0.6946     0.4612     0.6778
A_3     C     0.4334     0.6633     0.6574
A_1     C     0.4667     0.9647     0.864
A_2     C     0.1357     0.542     0.4099
A_1     C     0.6853     0.9379     0.7946
A_2     C     0.6137     0.6048     0.3105
A_2     C     0.4696     0.6192     0.2255
A_1     C     0.8765     0.0752     0.3977
A_0     C     0.415     0.175     0.4782
A_3     C     0.007     0.6813     0.8475
A_1     C     0.7053     0.1149     0.9104
A_0     C     0.4674     0.7067     0.4813
A_0     C     0.7765     0.8821     0.0021
A_1     C     0.8001     0.6853     0.1472
A_3     C     0.6324     0.2643     0.7939
A_1     C     0.2388     0.2488     0.9424
A_2     C     0.173     0.1114     0.1751
A_3     C     0.5605     0.7742     0.0836
A_3     C     0.451     0.4818     0.9311
A_2     C     0.6593     0.1582     0.1417
A_3     C     0.8566     0.0124     0.2408
A_1     C     0.8768     0.3274     0.6611
A_0     C     0.6174     0.5854     0.8745
A_2     C     0.6095     0.586     0.9882
A_3     C     0.8742     0.5381     0.0296
A_1     C     0.6941     0.8361     0.1145
A_1     C     0.8317     0.8403     0.3196
A_2     C     0.5611     0.1077     0.3032
A_1     C     0.7422     0.8132     0.3223
A_1     C     0.0089     0.8589     0.705
A_0     C     0.5643     0.8293     0.9367
A_3     C     0.321     0.8044     0.9197
A_0     C     0.2307     0.8199     0.7593
A_2     C     0.8193     0.892     0.5349
A_2     C     0.6039     0.542     0.7262
A_1     C     0.5185     0.7157     0.8381
A_0     C     0.3352     0.1062     0.2222
A_2     C     0.0609     0.0169     0.9414
A_3     C     0.4637     0.6265     0.4621
A_2     C     0.4158     0.3848     0.6219
A_3     C     0.6396     0.0914     0.8816
A_1     C     0.3115     0.8434     0.6889
A_3     C     0.3551     0.1457     0.6409
A_1     C     0.7605     0.1469     0.0983
A_3     C     0.5275     0.38     0.6075
A_1     C     0.1424     0.1997     0.306
A_2     C     0.4946     0.2307     0.3043
A_2     C     0.846     0.31     0.4748
A_1     C     0.2057     0.3366     0.703
A_2     C     0.2669     0.9211     0.8264
A_0     C     0.8177     0.3256     0.9391
A_3     C     0.2919     0.9403     0.8114
A_2     C     0.3793     0.8711     0.1756
A_1     C     0.0302     0.9268     0.3225
A_0     C     0.3876     0.5368     0.7036
A_1     C     0.8093     0.4227     0.6495
A_3     C     0.8062     0.9812     0.3049
A_2     C     0.0168     0.283     0.4512
A_3     C     0.1206     0.3628     0.8238
A_1     C     0.1104     0.2935     0.1666
A_2     C     0.9028     0.1536     0.0766
A_0     C     0.9696     0.2358     0.7409
A_0     C     0.2846     0.1931     0.6389
A_0     C     0.9155     0.7756     0.7203
A_0     C     0.7403     0.0048     0.6289
A_2     C     0.4287     0.0488     0.4201
A_0     C     0.0093     0.9499     0.3993
A_1     C     0.9218     0.9379     0.3552
A_0     C     0.0156     0.6507     0.413
A_2     C     0.9072     0.3062     0.8213
A_2     C     0.0884     0.9897     0.1992
A_0     C     0.3168     0.4473     0.3414
A_2     C     0.9979     0.4105     0.538
A_2     C     0.7794     0.5661     0.7557
A_3     C     0.7927     0.355     0.5304
A_2     C     0.7538     0.8139     0.0945
A_2     C     0.0954     0.2298     0.3834
A_2     C     0.4677     0.6412     0.5252
A_1     C     0.8251     0.1797     0.3879
A_2     C     0.2576     0.8735     0.8644
A_0     C     0.4077     0.2313     0.4835
A_0     C     0.4682     0.0918     0.4328
A_2     C     0.0259     0.0192     0.2818
A_0     C     0.1746     0.0584     0.7502
A_3     C     0.2623     0.4801     0.2212
A_3     C     0.541     0.4401     0.7603
A_0     C     0.2763     0.5023     0.4246
A_3     C     0.9499     0.5679     0.0808
A_3     C     0.2734     0.0773     0.7801
A_1     C     0.5842     0.1485     0.3347
A_3     C     0.5621     0.7348     0.5557
A_1     C     0.802     0.9752     0.0476
A_3     C     0.2694     0.6567     0.1854
A_2     C     0.969     0.3892     0.9753
A_1     C     0.9161     0.8356     0.156
A_2     C     0.0117     0.4311     0.9303
A_2     C     0.1217     0.5716     0.7542
A_0     C     0.1407     0.9502     0.7631
A_2     C     0.4181     0.2788     0.4182
A_2     C     0.7883     0.6464     0.1642
A_3     C     0.2625     0.4515     0.8017
A_0     C     0.2763     0.9999     0.2057
A_1     C     0.23     0.0498     0.2385
A_1     C     0.2943     0.3096     0.1976
A_3     C     0.563     0.1855     0.2097
A_1     C     0.7315     0.2935     0.5766
A_2     C     0.2146     0.3531     0.5497
A_2     C     0.7256     0.3259     0.5197
A_0     C     0.8577     0.2469     0.6832
A_1     C     0.8574     0.8885     0.7733
A_2     C     0.6287     0.7408     0.3851
A_3     C     0.1199     0.3367     0.5691
A_0     C     0.2538     0.6469     0.3839
A_3     C     0.564     0.9574     0.5993
A_3     C     0.2108     0.0792     0.0362
A_2     C     0.2896     0.4377     0.6233
A_2     C     0.8753     0.1675     0.8384
A_1     C     0.1813     0.2046     0.9982
A_1     C     0.8372     0.9422     0.9667
A_1     C     0.7749     0.7919     0.1865
A_0     C     0.3379     0.8763     0.7032
A_1     C     0.7641     0.7057     0.2514
A_0     C     0.9702     0.8882     0.1717
A_3     C     0.0183     0.9368     0.3385
A_2     C     0.2389     0.4046     0.8754
A_2     C     0.7432     0.7354     0.2688
A_1     C     0.2107     0.5434     0.0188
A_0     C     0.775     0.26     0.7548
A_2     C     0.7655     0.3896     0.8277
A_3     C     0.137     0.7872     0.257
A_3     C     0.4129     0.9795     0.2244
A_3     C     0.7756     0.792     0.8336
A_2     C     0.3082     0.7637     0.2337
A_1     C     0.0713     0.5787     0.1371
A_1     C     0.3134     0.0274     0.9233
A_2     C     0.0059     0.0482     0.8674
A_3     C     0.9611     0.048     0.4336
A_0     C     0.4643     0.0112     0.5779
A_1     C     0.2687     0.6997     0.1988
A_3     C     0.4985     0.1456     0.538
A_2     C     0.74     0.4404     0.5643
A_2     C     0.0179     0.8575     0.898
A_3     C     0.5658     0.7163     0.7714
A_3     C     0.9123     0.2484     0.8733
A_0     C     0.4401     0.4424     0.0958
A_1     C     0.2683     0.0672     0.2018
A_0     C     0.8586     0.3193     0.4338
A_2     C     0.1473     0.3595     0.6024
A_3     C     0.5677     0.0034     0.4372
A_3     C     0.3512     0.5284     0.5842
A_3     C     0.6581     0.7223     0.2795
A_3     C     0.5714     0.2271     0.693
A_0     C     0.7474     0.6251     0.0277
A_0     C     0.2678     0.4687     0.4258
A_0     C     0.3002     0.9781     0.5605
A_1     C     0.0247     0.589     0.2755
A_1     C     0.7398     0.3138     0.516
A_2     C     0.7329     0.593     0.72
A_3     C     0.5442     0.5845     0.8216
A_3     C     0.1635     0.226     0.8996
A_2     C     0.842     0.5193     0.175
A_3     C     0.5831     0.9187     0.5768
A_1     C     0.3573     0.9388     0.2118
A_1     C     0.0873     0.2307     0.5489
A_0     C     0.6644     0.5569     0.7043
A_0     C     0.9537     0.9078     0.412
A_2     C     0.4319     0.3884     0.3812
A_3     C     0.6751     0.9275     0.8206
A_2     C     0.3821     0.4929     0.0144
A_2     C     0.1404     0.4683     0.4349
A_2     C     0.8982     0.5175     0.2643
A_0     C     0.9839     0.0744     0.7974
A_1     C     0.8019     0.5079     0.3957
A_1     C     0.2926     0.7518     0.2958
A_1     C     0.0354     0.1374     0.6758
A_2     C     0.6384     0.7193     0.0814
A_2     C     0.7404     0.9904     0.4433
A_2     C     0.3842     0.2663     0.7945
A_0     C     0.7644     0.2674     0.758
A_0     C     0.2263     0.2007     0.6286
A_2     C     0.3824     0.0944     0.4559
A_3     C     0.1215     0.0358     0.1501
A_1     C     0.0181     0.6999     0.7385
A_0     C     0.1296     0.3103     0.6172
A_0     C     0.6689     0.0124     0.1639
A_3     C     0.7699     0.8644     0.9202
A_2     C     0.7296     0.7512     0.5725
A_1     C     0.7948     0.8604     0.0429
A_0     C     0.9919     0.6738     0.6598
A_2     C     0.2124     0.7904     0.8092
A_0     C     0.2366     0.0696     0.3671
A_0     C     0.7955     0.0704     0.3807
A_1     C     0.458     0.6794     0.0195
A_3     C     0.9049     0.605     0.7429
A_1     C     0.2236     0.7576     0.5815
A_1     C     0.906     0.2791     0.8313
A_0     C     0.9017     0.0585     0.7614
A_3     C     0.6009     0.9084     0.4486
A_1     C     0.6039     0.435     0.8678
A_2     C     0.4744     0.0882     0.4735
A_0     C     0.7733     0.51     0.0466
A_1     C     0.1604     0.4534     0.0226
A_3     C     0.3079     0.0006     0.3252
A_3     C     0.6245     0.0231     0.6257
A_1     C     0.1444     0.8483     0.8829
A_2     C     0.1381     0.3547     0.6623
A_1     C     0.7369     0.1677     0.9009
A_2     C     0.2365     0.0031     0.4479
A_1     C     0.9727     0.0406     0.0381
A_1     C     0.8488     0.5861     0.7165
A_2     C     0.6163     0.435     0.0568
A_2     C     0.2339     0.7638     0.7823
A_3     C     0.4484     0.1183     0.2182
A_3     C     0.9041     0.317     0.9353
A_0     C     0.7402     0.093     0.1434
A_1     C     0.2107     0.2678     0.6917
A_3     C     0.2085     0.2121     0.762
A_0     C     0.8538     0.7352     0.2465
A_3     C     0.849     0.4139     0.1116
A_1     C     0.8284     0.0949     0.2978
A_1     C     0.3122     0.5258     0.1534
A_3     C     0.9116     0.704     0.9649
A_2     C     0.5476     0.7852     0.3607
A_2     C     0.3224     0.9695     0.07
A_0     C     0.573     0.8714     0.1231
A_0     C     0.881     0.6723     0.3275
A_1     C     0.6475     0.3841     0.3432
A_1     C     0.008     0.4741     0.8771
A_1     C     0.102     0.4861     0.2045
A_1     C     0.6754     0.4691     0.6234
A_1     C     0.6469     0.9154     0.3028
A_0     C     0.3491     0.1415     0.7497
A_2     C     0.9568     0.4497     0.5123
A_2     C     0.631     0.1176     0.7343
A_1     C     0.2752     0.8251     0.7551
A_0     C     0.1009     0.1054     0.8382
A_2     C     0.4794     0.4612     0.0773
A_1     C     0.424     0.9264     0.5811
A_2     C     0.0939     0.9891     0.7505
A_0     C     0.5017     0.6916     0.0785
A_3     C     0.0544     0.4532     0.7111
A_0     C     0.5178     0.6515     0.8513
A_1     C     0.7269     0.3665     0.8652
A_1     C     0.7071     0.0014     0.4646
A_3     C     0.1223     0.0068     0.1457
A_1     C     0.0928     0.3172     0.8045
A_1     C     0.8428     0.0765     0.5502
A_0     C     0.7208     0.7458     0.5085
A_0     C     0.6001     0.4323     0.1943
A_3     C     0.2024     0.9599     0.3706
A_0     C     0.5276     0.9044     0.0782
A_3     C     0.2579     0.9051     0.677
A_3     C     0.6186     0.3347     0.195
A_1     C     0.8787     0.9811     0.1282
A_2     C     0.7512     0.5619     0.9443
A_0     C     0.2394     0.2902     0.2964
A_2     C     0.0019     0.6687     0.8409
A_2     C     0.6955     0.9626     0.125
A_0     C     0.7535     0.85     0.7521
A_2     C     0.7602     0.3296     0.3935
A_2     C     0.9376     0.6303     0.3774
A_2     C     0.2498     0.3156     0.0384
A_3     C     0.8645     0.8769     0.039
A_1     C     0.9726     0.0833     0.4027
A_3     C     0.4105     0.5446     0.5499
A_2     C     0.2317     0.8757     0.98
A_2     C     0.1242     0.4988     0.733
A_3     C     0.8136     0.7856     0.6837
A_3     C     0.776     0.5432     0.6923
A_1     C     0.8922     0.9313     0.1482
A_3     C     0.8074     0.1984     0.0734
A_2     C     0.6838     0.9654     0.0574
A_1     C     0.2106     0.668     0.1848
A_2     C     0.0156     0.8829     0.3835
A_3     C     0.8261     0.841     0.027
A_2     C     0.6019     0.9837     0.453
A_3     C     0.923     0.1205     0.975
A_2     C     0.6289     0.836     0.9262
A_2     C     0.6494     0.3526     0.34
A_1     C     0.3426     0.6005     0.6891
A_2     C     0.838     0.8675     0.5369
A_0     C     0.729     0.3157     0.1439
A_2     C     0.7762     0.795     0.5892
A_1     C     0.4446     0.4124     0.1217
A_1     C     0.3795     0.7435     0.3848
A_0     C     0.3746     0.4277     0.1651
A_2     C     0.0311     0.2727     0.5496
A_3     C     0.534     0.4728     0.5588
A_0     C     0.2681     0.3356     0.1319
A_1     C     0.4228     0.3381     0.7449
A_0     C     0.3899     0.0398     0.4658
A_1     C     0.6971     0.2227     0.9034
A_2     C     0.923     0.039     0.7231
A_3     C     0.6284     0.469     0.6595
A_3     C     0.5855     0.6593     0.9847
A_2     C     0.1662     0.3884     0.5277
A_1     C     0.1853     0.9866     0.2451
A_0     C     0.635     0.821     0.402
A_2     C     0.6896     0.1406     0.4517
A_2     C     0.7632     0.909     0.8416
A_2     C     0.6338     0.7827     0.5717
A_0     C     0.9894     0.1543     0.5509
A_1     C     0.5048     0.3007     0.665
A_2     C     0.4824     0.3571     0.842
A_1     C     0.4309     0.6065     0.4846
A_0     C     0.7292     0.0521     0.2976
A_2     C     0.5661     0.2967     0.6643
A_2     C     0.6954     0.3509     0.7242
A_0     C     0.9833     0.1133     0.9261
A_3     C     0.7218     0.2625     0.44
A_0     C     0.7655     0.17     0.0256
A_2     C     0.052     0.4135     0.3853
A_3     C     0.6397     0.9585     0.8928
A_2     C     0.6259     0.4315     0.4474
A_2     C     0.1436     0.2791     0.4084
A_3     C     0.8926     0.8924     0.6928
A_2     C     0.1336     0.4603     0.7211
A_3     C     0.3304     0.1671     0.1745
A_3     C     0.7937     0.768     0.5827
A_3     C     0.8276     0.7792     0.7687
A_0     C     0.6424     0.4805     0.6877
A_3     C     0.3918     0.5364     0.7719
A_1     C     0.516     0.818     0.7161
A_2     C     0.4897     0.8495     0.6425
A_1     C     0.4419     0.9337     0.5404
A_0     C     0.056     0.424     0.728
A_0     C     0.7543     0.4647     0.2495
A_3     C     0.5765     0.4081     0.5247
A_1     C     0.6995     0.2104     0.062
A_0     C     0.9416     0.8195     0.5004
A_2     C     0.1783     0.3505     0.6981
A_0     C     0.7134     0.9132     0.29
A_0     C     0.3301     0.8222     0.8039
A_0     C     0.0874     0.7298     0.3411
A_0     C     0.2967     0.7435     0.5973
A_1     C     0.2658     0.8618     0.4944
A_2     C     0.3971     0.1459     0.3817
A_2     C     0.708     0.8399     0.9019
A_2     C     0.7071     0.0281     0.777
A_3     C     0.3648     0.7031     0.1399
A_0     C     0.2518     0.7561     0.2918
A_3     C     0.1902     0.5647     0.7676
A_2     C     0.2677     0.214     0.0895
A_0     C     0.0192     0.357     0.0058
A_1     C     0.5391     0.4346     0.6362
A_0     C     0.0362     0.2969     0.4541
A_1     C     0.4821     0.4093     0.1921
A_2     C     0.7011     0.8218     0.6145
A_0     C     0.9784     0.6637     0.5988
A_1     C     0.3248     0.6263     0.9138
A_3     C     0.8398     0.8691     0.6332
A_3     C     0.2611     0.6962     0.285
A_3     C     0.0532     0.9761     0.041
A_2     C     0.3047     0.9408     0.3402
A_1     C     0.4717     0.984     0.9945
A_1     C     0.6881     0.992     0.4866
A_1     C     0.3213     0.0021     0.8991
A_1     C     0.8152     0.0474     0.6393
A_2     C     0.5196     0.205     0.0497
A_2     C     0.7036     0.8583     0.4094
A_3     C     0.7644     0.181     0.955
A_3     C     0.2288     0.6785     0.8167
A_2     C     0.0169     0.2295     0.872
A_1     C     0.9854     0.0639     0.4682
A_1     C     0.5685     0.9048     0.8852
