MAT-22

loop_
_symmetry_equiv_pos_as_xyz
  x,y,z
_cell_length_a          21.0077
_cell_length_b          34.9603
_cell_length_c          42.1711
_cell_angle_alpha       90.0000
_cell_angle_beta        90.0000
_cell_angle_gamma       90.0000
loop_
_atom_site_label
_atom_site_type_symbol
_atom_site_fract_x
_atom_site_fract_y
_atom_site_fract_z
A_0     C     0.034     0.8439     0.8418
A_1     C     0.7986     0.8879     0.6436
A_3     C     0.4577     0.693     0.2324
A_1     C     0.9363     0.4914     0.2853
A_1     C     0.3256     0.0817     0.2222
A_1     C     0.0092     0.538     0.9456
A_3     C     0.4982     0.6955     0.0911
A_2     C     0.3223     0.0437     0.2294
A_1     C     0.367     0.5898     0.4417
A_2     C     0.1988     0.3162     0.6377
A_2     C     0.9371     0.2808     0.8424
A_3     C     0.0576     0.9892     0.0728
A_2     C     0.2437     0.7988     0.1682
A_1     C     0.4406     0.0082     0.6693
A_3     C     0.5107     0.6038     0.4604
A_0     C     0.6401     0.5969     0.8039
A_0     C     0.9973     0.4399     0.8511
A_1     C     0.9062     0.9847     0.0461
A_3     C     0.6893     0.2965     0.7297
A_3     C     0.3458     0.1271     0.2705
A_0     C     0.9625     0.3325     0.2887
A_3     C     0.3317     0.9759     0.647
A_2     C     0.1971     0.4799     0.2446
A_3     C     0.6318     0.0809     0.4915
A_1     C     0.9117     0.4619     0.4249
A_2     C     0.1759     0.1206     0.1293
A_2     C     0.5169     0.3948     0.8147
A_1     C     0.6904     0.0148     0.889
A_1     C     0.4097     0.5274     0.3821
A_3     C     0.8378     0.4091     0.1142
A_1     C     0.6104     0.6013     0.9358
A_0     C     0.7177     0.0585     0.6197
A_3     C     0.7152     0.4135     0.2638
A_0     C     0.6473     0.5252     0.6054
A_0     C     0.0473     0.7986     0.3964
A_3     C     0.6955     0.3565     0.7084
A_0     C     0.5254     0.2268     0.65
A_0     C     0.9763     0.633     0.643
A_3     C     0.5336     0.3997     0.9981
A_2     C     0.3555     0.8977     0.8617
A_0     C     0.2428     0.4958     0.0513
A_1     C     0.9813     0.6212     0.1635
A_3     C     0.9206     0.166     0.3492
A_3     C     0.9885     0.628     0.5448
A_1     C     0.9681     0.6875     0.8293
A_3     C     0.504     0.7262     0.6203
A_2     C     0.088     0.0254     0.3
A_2     C     0.7873     0.0986     0.1386
A_2     C     0.2684     0.189     0.1991
A_3     C     0.4557     0.3552     0.4841
A_1     C     0.214     0.0375     0.8523
A_2     C     0.7947     0.4694     0.7403
A_2     C     0.9135     0.8473     0.7938
A_0     C     0.5265     0.9174     0.983
A_2     C     0.7694     0.9167     0.6508
A_0     C     0.5345     0.7793     0.7909
A_3     C     0.2334     0.5564     0.0173
A_2     C     0.2024     0.027     0.6277
A_0     C     0.8803     0.3835     0.5631
A_2     C     0.1316     0.6752     0.1126
A_2     C     0.4898     0.6026     0.6616
A_0     C     0.6223     0.8092     0.9724
A_1     C     0.9076     0.4074     0.5038
A_0     C     0.9127     0.1475     0.7121
A_2     C     0.0036     0.9149     0.3136
A_0     C     0.2738     0.8852     0.2086
A_1     C     0.0224     0.8375     0.2043
A_2     C     0.2964     0.8125     0.5999
A_1     C     0.6216     0.8787     0.1902
A_0     C     0.6853     0.4999     0.8948
A_0     C     0.6549     0.0803     0.1499
A_1     C     0.8177     0.5652     0.8367
A_1     C     0.424     0.7657     0.8125
A_2     C     0.8089     0.2213     0.8454
A_3     C     0.4343     0.5586     0.3048
A_3     C     0.2597     0.9786     0.0535
A_3     C     0.896     0.2538     0.1047
A_0     C     0.0749     0.6681     0.0938
A_0     C     0.518     0.6243     0.8394
A_1     C     0.122     0.4668     0.0684
A_0     C     0.0142     0.9422     0.9409
A_2     C     0.8487     0.4628     0.4924
A_1     C     0.2346     0.7806     0.6714
A_1     C     0.4232     0.3171     0.8144
A_3     C     0.5153     0.2477     0.3862
A_3     C     0.8032     0.4654     0.9916
A_0     C     0.7526     0.3328     0.5677
A_0     C     0.1447     0.2467     0.1143
A_1     C     0.4057     0.551     0.3301
A_3     C     0.6964     0.3873     0.2594
A_1     C     0.0282     0.5581     0.5646
A_0     C     0.9427     0.8525     0.8557
A_1     C     0.3969     0.2433     0.3422
A_1     C     0.8715     0.5768     0.0414
A_2     C     0.0469     0.8271     0.9461
A_1     C     0.5597     0.3879     0.3748
A_1     C     0.0589     0.5893     0.3279
A_0     C     0.5848     0.3283     0.2621
A_2     C     0.7862     0.7548     0.4349
A_0     C     0.7787     0.4456     0.9298
A_0     C     0.4171     0.1227     0.2992
A_3     C     0.9467     0.6078     0.1817
A_3     C     0.2267     0.068     0.5846
A_3     C     0.6172     0.507     0.5996
A_3     C     0.7622     0.6674     0.3334
A_2     C     0.5796     0.5389     0.1092
A_1     C     0.6641     0.4621     0.0105
A_1     C     0.2883     0.4123     0.3318
A_0     C     0.2562     0.9289     0.1828
A_0     C     0.8689     0.6575     0.3054
A_0     C     0.8526     0.9126     0.1089
A_3     C     0.9312     0.2597     0.4008
A_3     C     0.572     0.997     0.8821
A_3     C     0.8889     0.0404     0.3347
A_2     C     0.5587     0.8417     0.8889
A_1     C     0.7271     0.2176     0.1321
A_1     C     0.4808     0.9695     0.9542
A_3     C     0.1307     0.8181     0.9742
A_0     C     0.2336     0.0498     0.9121
A_0     C     0.1888     0.8364     0.8505
A_3     C     0.2026     0.2506     0.043
A_0     C     0.453     0.6437     0.9047
A_1     C     0.3519     0.1626     0.0477
A_3     C     0.7648     0.4742     0.3077
A_0     C     0.9859     0.9559     0.5589
A_1     C     0.1599     0.6226     0.9288
A_0     C     0.2789     0.7109     0.9108
A_2     C     0.2803     0.141     0.5649
A_0     C     0.8045     0.1535     0.7102
A_1     C     0.4315     0.4494     0.2809
A_1     C     0.4525     0.7365     0.9452
A_3     C     0.5122     0.1883     0.5862
A_2     C     0.4674     0.0432     0.273
A_1     C     0.1147     0.1054     0.0834
A_3     C     0.137     0.9818     0.7197
A_1     C     0.429     0.3092     0.5197
A_3     C     0.662     0.8108     0.8617
A_3     C     0.463     0.8143     0.4338
A_1     C     0.2276     0.4261     0.3049
A_2     C     0.996     0.4834     0.0664
A_2     C     0.6683     0.0057     0.0474
A_3     C     0.0239     0.992     0.9516
A_0     C     0.94     0.8023     0.5227
A_2     C     0.7557     0.2933     0.0448
A_2     C     0.1761     0.9506     0.1928
A_2     C     0.7043     0.4374     0.1965
A_3     C     0.4191     0.9155     0.55
A_1     C     0.0344     0.4734     0.5645
A_2     C     0.929     0.6462     0.1344
A_1     C     0.3918     0.351     0.4418
A_0     C     0.6584     0.2926     0.211
A_3     C     0.2829     0.6559     0.474
A_1     C     0.7455     0.6335     0.7983
A_3     C     0.4345     0.0176     0.5614
A_1     C     0.5907     0.6875     0.138
A_0     C     0.4907     0.5669     0.7596
A_2     C     0.4597     0.1013     0.9367
A_2     C     0.7823     0.8708     0.9379
A_0     C     0.769     0.7369     0.6995
A_3     C     0.67     0.1476     0.1467
A_1     C     0.0402     0.8318     0.9208
A_1     C     0.5024     0.1414     0.2401
A_0     C     0.9359     0.2183     0.098
A_0     C     0.8572     0.3501     0.2301
A_2     C     0.9285     0.5146     0.5506
A_3     C     0.3006     0.6298     0.4793
A_2     C     0.1818     0.6891     0.2022
A_2     C     0.3066     0.1991     0.1005
A_2     C     0.7045     0.7646     0.4737
A_3     C     0.8697     0.62     0.7535
A_3     C     0.2381     0.0756     0.4147
A_1     C     0.1057     0.5625     0.4599
A_1     C     0.4495     0.3942     0.169
A_3     C     0.8542     0.5659     0.2868
A_0     C     0.1291     0.243     0.7005
A_2     C     0.3676     0.8388     0.5126
A_0     C     0.8685     0.3665     0.715
A_1     C     0.0977     0.9336     0.9277
A_1     C     0.7368     0.0261     0.4647
A_0     C     0.3774     0.2614     0.083
A_3     C     0.1469     0.3102     0.6645
A_2     C     0.3695     0.4067     0.5522
A_3     C     0.8839     0.1358     0.6909
A_0     C     0.7869     0.652     0.2661
A_2     C     0.6581     0.985     0.8927
A_0     C     0.9725     0.3041     0.5107
A_0     C     0.3381     0.8139     0.8525
A_2     C     0.4736     0.1401     0.8079
A_1     C     0.8001     0.3537     0.6512
A_3     C     0.4687     0.2928     0.7321
A_3     C     0.0949     0.4165     0.4825
A_0     C     0.0263     0.5568     0.7701
A_2     C     0.8983     0.893     0.7413
A_2     C     0.8839     0.0877     0.4296
A_3     C     0.0188     0.8768     0.5722
A_0     C     0.5555     0.1005     0.3234
A_2     C     0.9934     0.9529     0.5278
A_2     C     0.1115     0.0978     0.0317
A_1     C     0.5746     0.9309     0.8277
A_1     C     0.662     0.7494     0.0264
A_1     C     0.6029     0.5233     0.9988
A_0     C     0.8699     0.4825     0.8559
A_0     C     0.3307     0.4702     0.8481
A_0     C     0.4766     0.8445     0.1846
A_2     C     0.8125     0.332     0.6008
A_1     C     0.4262     0.3548     0.8319
A_3     C     0.9525     0.5402     0.2366
A_3     C     0.7222     0.9399     0.5951
A_1     C     0.247     0.9238     0.258
A_3     C     0.9782     0.384     0.4306
A_2     C     0.1784     0.3669     0.4279
A_2     C     0.9566     0.4439     0.7097
A_2     C     0.0084     0.0023     0.1123
A_1     C     0.6889     0.3791     0.7372
A_2     C     0.5937     0.4526     0.7119
A_2     C     0.2282     0.1592     0.3903
A_2     C     0.208     0.8061     0.064
A_2     C     0.8514     0.4024     0.3211
A_2     C     0.8015     0.4533     0.1055
A_0     C     0.5947     0.8232     0.8472
A_2     C     0.9402     0.5979     0.546
A_1     C     0.3986     0.6218     0.699
A_2     C     0.3588     0.472     0.9448
A_3     C     0.1604     0.2295     0.4438
A_0     C     0.3475     0.0389     0.3755
A_3     C     0.781     0.6665     0.309
A_3     C     0.4875     0.0141     0.9342
A_1     C     0.6079     0.4365     0.7776
A_0     C     0.7246     0.2982     0.4421
A_2     C     0.1793     0.2792     0.4199
A_2     C     0.0257     0.8686     0.2833
A_3     C     0.1726     0.681     0.896
A_2     C     0.2875     0.6043     0.0744
A_1     C     0.2738     0.9106     0.7775
A_3     C     0.8288     0.5134     0.9542
A_0     C     0.1697     0.0461     0.7377
A_3     C     0.7516     0.0327     0.4155
A_3     C     0.4639     0.9684     0.1196
A_0     C     0.0379     0.4194     0.6017
A_2     C     0.0384     0.7331     0.1872
A_3     C     0.8313     0.434     0.8275
A_2     C     0.6094     0.1554     0.4412
A_3     C     0.5429     0.3841     0.7138
A_1     C     0.0766     0.0611     0.2078
A_3     C     0.3169     0.8735     0.742
A_1     C     0.5616     0.1172     0.7695
A_0     C     0.6906     0.4261     0.6404
A_3     C     0.1297     0.546     0.8546
A_2     C     0.7786     0.3397     0.7362
A_1     C     0.8163     0.1235     0.4007
A_1     C     0.2364     0.5185     0.4312
A_1     C     0.4019     0.4825     0.8978
A_0     C     0.5082     0.9401     0.555
A_0     C     0.0754     0.7662     0.2269
A_2     C     0.2686     0.4225     0.7529
A_0     C     0.3331     1.0     0.2117
A_2     C     0.096     0.3731     0.2325
A_1     C     0.8749     0.8039     0.0371
A_3     C     0.0251     0.0701     0.9597
A_3     C     0.6352     0.8725     0.5953
A_2     C     0.5129     0.4129     0.8248
A_0     C     0.3013     0.0961     0.5361
A_0     C     0.2731     0.1933     0.8765
A_3     C     0.736     0.2521     0.5508
A_3     C     0.084     0.5596     0.5449
A_0     C     0.1204     0.7589     0.132
A_0     C     0.2984     0.9952     0.7283
A_2     C     0.9228     0.8317     0.4144
A_3     C     0.5948     0.8419     0.3104
A_1     C     0.5052     0.7209     0.3895
A_2     C     0.4587     0.5638     0.2705
A_0     C     0.295     0.8463     0.7032
A_0     C     0.5327     0.1396     0.5997
A_3     C     0.9296     0.1483     0.4752
A_0     C     0.4118     0.6318     0.0632
A_2     C     0.3337     0.6902     0.2009
A_0     C     0.2633     0.7786     0.4976
A_3     C     0.8879     0.1055     0.8138
A_0     C     0.345     0.7752     0.9757
A_0     C     0.18     0.9873     0.3232
A_2     C     0.4924     0.23     0.395
A_0     C     0.2797     0.1858     0.162
A_1     C     0.7311     0.6466     0.9505
A_3     C     0.2874     0.0041     0.2891
A_1     C     0.533     0.1362     0.4728
A_2     C     0.6724     0.5626     0.3102
A_3     C     0.1638     0.1342     0.2875
A_3     C     0.9322     0.087     0.2808
A_2     C     0.8685     0.8211     0.7738
A_3     C     0.9656     0.1216     0.1719
A_0     C     0.201     0.7404     0.6452
A_0     C     0.1151     0.7505     0.1612
A_3     C     0.3885     0.6283     0.5955
A_0     C     0.2258     0.9172     0.5939
A_3     C     0.2556     0.365     0.8006
A_0     C     0.4191     0.0091     0.2874
A_0     C     0.3544     0.9172     0.1474
A_2     C     0.6727     0.8518     0.1319
A_0     C     0.6765     0.3996     0.8991
A_3     C     0.8801     0.2881     0.1484
A_0     C     0.8478     0.5698     0.1656
A_2     C     0.0314     0.7789     0.8034
A_3     C     0.6389     0.3155     0.7336
A_0     C     0.2593     0.5611     0.6843
A_1     C     0.7289     0.1595     0.3111
A_2     C     0.2901     0.5039     0.363
A_1     C     0.0187     0.348     0.4244
A_2     C     0.7029     0.3812     0.5567
A_0     C     0.1339     0.9086     0.5045
A_2     C     0.6403     0.1778     0.4263
A_3     C     0.6981     0.9571     0.0192
A_1     C     0.6739     0.8462     0.6538
A_1     C     0.052     0.2622     0.7595
A_0     C     0.3883     0.8637     0.4121
A_1     C     0.462     0.8008     0.3026
A_1     C     0.1228     0.9531     0.6863
A_1     C     0.1415     0.3292     0.0291
A_1     C     0.5426     0.9328     0.6868
A_1     C     0.565     0.3998     0.1526
A_2     C     0.514     0.5255     0.4369
A_1     C     0.1597     0.0371     0.4726
A_1     C     0.8227     0.7742     0.3136
A_0     C     0.9975     0.9803     0.4813
A_0     C     0.0685     0.6338     0.6349
A_1     C     0.4561     0.3581     0.809
A_1     C     0.5285     0.7018     0.5294
A_2     C     0.3982     0.3084     0.2001
A_3     C     0.2209     0.7378     0.2432
A_0     C     0.0118     0.4866     0.4199
A_2     C     0.7093     0.1987     0.2245
A_2     C     0.3184     0.3443     0.5202
A_2     C     0.4061     0.7199     0.4413
A_2     C     0.4304     0.9467     0.0682
A_0     C     0.0601     0.1727     0.9778
A_0     C     0.4428     0.4255     0.6282
A_2     C     0.9102     0.3906     0.8015
A_0     C     0.1445     0.9006     0.7416
A_1     C     0.0873     0.6127     0.4672
A_2     C     0.2407     0.5902     0.5223
A_0     C     0.5574     0.2458     0.3879
A_2     C     0.2763     0.9203     0.9625
A_0     C     0.9697     0.9402     0.022
A_3     C     0.5161     0.5741     0.2892
A_1     C     0.19     0.9286     0.1978
A_2     C     0.1467     0.7332     0.9104
A_0     C     0.9278     0.4465     0.2713
A_1     C     0.8602     0.6968     0.0811
A_2     C     0.1485     0.7082     0.3289
A_3     C     0.8556     0.7104     0.1354
A_0     C     0.8219     0.1929     0.402
A_1     C     0.2452     0.0856     0.0941
A_1     C     0.0551     0.1117     0.1731
A_2     C     0.8409     0.382     0.4511
A_1     C     0.1249     0.5391     0.3206
A_0     C     0.8272     0.1632     0.0075
A_0     C     0.3334     0.1079     0.0168
A_2     C     0.2113     0.3498     0.3205
A_1     C     0.6487     0.5992     0.5279
A_2     C     0.3244     0.7052     0.0525
A_0     C     0.6129     0.1997     0.9685
A_0     C     0.9995     0.1827     0.4497
A_0     C     0.1835     0.9846     0.5347
A_0     C     0.2885     0.146     0.2053
A_1     C     0.8228     0.5827     0.86
A_1     C     0.9244     0.4029     0.4864
A_3     C     0.0396     0.8742     0.7912
A_1     C     0.7539     0.3994     0.1952
A_0     C     0.9468     0.7215     0.9922
A_3     C     0.0296     0.7786     0.8846
A_0     C     0.5578     0.6413     0.6445
A_3     C     0.3409     0.179     0.893
A_2     C     0.4545     0.2491     0.731
A_1     C     0.1135     0.3635     0.5941
A_3     C     0.1266     0.2414     0.7843
A_1     C     0.5552     0.6917     0.4339
A_1     C     0.9048     0.1193     0.7594
A_2     C     0.9996     0.0147     0.3252
A_1     C     0.4706     0.5267     0.741
A_0     C     0.1204     0.7288     0.4541
A_0     C     0.2759     0.5593     0.0141
A_1     C     0.1633     0.3823     0.0701
A_1     C     0.5521     0.2601     0.3083
A_2     C     0.4546     0.4871     0.8855
A_2     C     0.9666     0.6618     0.5276
A_2     C     0.6992     0.9399     0.2226
A_0     C     0.1757     0.9537     0.3475
A_3     C     0.2091     0.6066     0.9124
A_3     C     0.0305     0.0847     0.1066
A_3     C     0.4648     0.4192     0.0884
A_2     C     0.2699     0.2403     0.8997
A_3     C     0.024     0.6822     0.2683
A_2     C     0.403     0.094     0.818
A_1     C     0.0993     0.9994     0.6406
A_1     C     0.5387     0.7845     0.1673
A_1     C     0.4196     0.2933     0.5935
A_3     C     0.9578     0.9044     0.802
A_0     C     0.7351     0.1406     0.6955
A_2     C     0.7526     0.0697     0.121
A_1     C     0.5898     0.7408     0.3882
A_3     C     0.2244     0.4498     0.4471
A_1     C     0.1015     0.5435     0.6646
A_0     C     0.0388     0.1183     0.0653
A_0     C     0.5224     0.1125     0.9152
A_2     C     0.457     0.4808     0.794
A_0     C     0.6602     0.9786     0.0145
A_3     C     0.4201     0.2794     0.4469
A_1     C     0.1772     0.5492     0.2324
A_0     C     0.7356     0.4051     0.4832
A_1     C     0.5658     0.1005     0.1288
A_0     C     0.5652     0.1092     0.2276
A_2     C     0.1324     0.8261     0.241
A_3     C     0.9949     0.6423     0.2927
A_0     C     0.9766     0.2982     0.1225
A_0     C     0.2349     0.0288     0.1487
A_0     C     0.7946     0.3001     0.8323
A_3     C     0.2825     0.7027     0.7821
A_1     C     0.8024     0.2991     0.9797
A_2     C     0.0258     0.7547     0.7974
A_2     C     0.4898     0.3762     0.4738
A_3     C     0.0446     0.4815     0.1108
A_2     C     0.432     0.1868     0.9649
A_3     C     0.1612     0.438     0.9636
A_2     C     0.6762     0.2365     0.9688
A_0     C     0.9627     0.9014     0.3867
A_1     C     0.8663     0.2623     0.2673
A_2     C     0.1169     0.3582     0.0484
A_1     C     0.8479     0.1771     0.0398
A_3     C     0.7129     0.6502     0.7871
A_0     C     0.1087     0.5062     0.2542
A_0     C     0.8825     0.5832     0.318
A_3     C     0.8119     0.5039     0.3937
A_3     C     0.0705     0.9846     0.978
A_0     C     0.5644     0.0247     0.701
A_1     C     0.782     0.5817     0.6113
A_2     C     0.9238     0.5912     0.7537
A_2     C     0.5131     0.3828     0.2367
A_3     C     0.1061     0.6178     0.5983
A_1     C     0.3827     0.5651     0.5729
A_0     C     0.3851     0.7794     0.636
A_3     C     0.1729     0.2894     0.3778
A_1     C     0.4927     0.1936     0.0996
A_2     C     0.8755     0.8111     0.157
A_3     C     0.8313     0.3966     0.645
A_2     C     0.0961     0.2333     0.8498
A_1     C     0.4471     0.0304     0.8257
A_3     C     0.2566     0.8299     0.5865
A_0     C     0.7563     0.674     0.9371
A_3     C     0.2056     0.8259     0.6342
A_3     C     0.591     0.5437     0.284
A_0     C     0.337     0.6626     0.1547
A_0     C     0.5016     0.0843     0.2515
A_3     C     0.49     0.0786     0.9723
A_0     C     0.0239     0.37     0.7526
A_3     C     0.0141     0.7605     0.4938
A_1     C     0.9982     0.0981     0.9621
A_3     C     0.1226     0.3816     0.9938
A_1     C     0.8031     0.2855     0.999
A_3     C     0.7438     0.0934     0.2221
A_1     C     0.0341     0.5196     0.2454
A_2     C     0.8447     0.5091     0.7837
A_3     C     0.2407     0.9832     0.7961
A_1     C     0.2043     0.5863     0.6939
A_1     C     0.9136     0.3026     0.8371
A_3     C     0.9525     0.4813     0.329
A_2     C     0.6739     0.6564     0.7471
A_3     C     0.3728     0.1828     0.2474
A_2     C     0.2965     0.1547     0.0155
A_0     C     0.2066     0.4065     0.3098
A_2     C     0.3134     0.4856     0.1425
A_0     C     0.9465     0.3796     0.3688
A_3     C     0.9146     0.7356     0.383
A_0     C     0.2549     0.9113     0.1365
A_1     C     0.984     0.9247     0.0536
A_0     C     0.5102     0.9854     0.8284
A_2     C     0.7324     0.0683     0.2954
A_2     C     0.2091     0.121     0.5855
A_1     C     0.187     0.2393     0.0743
A_2     C     0.1785     0.4315     0.0855
A_2     C     0.1646     0.0968     0.1792
A_1     C     0.2378     0.445     0.6782
A_2     C     0.5654     0.1813     0.9635
A_3     C     0.3473     0.2262     0.2477
A_1     C     0.2147     0.9542     0.1299
A_1     C     0.0709     0.5364     0.61
A_2     C     0.2769     0.406     0.6372
A_3     C     0.8283     0.8186     0.4754
A_3     C     0.8226     0.9986     0.4508
A_2     C     0.0677     0.5164     0.7105
A_2     C     0.1424     0.235     0.7692
A_1     C     0.2962     0.318     0.1805
A_0     C     0.0953     0.7005     0.973
A_3     C     0.1496     0.0502     0.4834
A_2     C     0.5672     0.9712     0.3032
A_1     C     0.2441     0.2138     0.3685
A_0     C     0.5431     0.7847     0.9081
A_3     C     0.2777     0.4512     0.7082
A_3     C     0.3012     0.6644     0.9001
A_2     C     0.899     0.6424     0.5963
A_0     C     0.848     0.1447     0.8904
A_2     C     0.6223     0.6656     0.057
A_1     C     0.9063     0.5685     0.8208
A_0     C     0.1563     0.1468     0.0239
A_2     C     0.8636     0.4769     0.0677
A_1     C     0.0347     0.9821     0.8525
A_2     C     0.0337     0.4024     0.7931
A_3     C     0.1631     0.9554     0.7124
A_3     C     0.4541     0.3218     0.4579
A_0     C     0.3453     0.4319     0.0451
A_0     C     0.011     0.5403     0.9435
A_0     C     0.381     0.298     0.1028
A_0     C     0.1914     0.8535     0.1149
A_3     C     0.5616     0.075     0.4359
A_3     C     0.0143     0.0282     0.1579
A_3     C     0.7003     0.098     0.4777
A_3     C     0.9828     0.6585     0.4485
A_2     C     0.1783     0.9699     0.8301
A_1     C     0.7434     0.3432     0.4849
A_1     C     0.8791     0.3565     0.4267
A_1     C     0.803     0.5604     0.89
A_1     C     0.0386     0.7534     0.6241
A_2     C     0.1816     0.6309     0.9296
A_3     C     0.5435     0.7482     0.8316
A_2     C     0.7986     0.0272     0.8224
A_2     C     0.0702     0.0487     0.5922
A_2     C     0.6379     0.3258     0.1595
A_1     C     0.9588     0.2304     0.5684
A_2     C     0.5129     0.7718     0.0112
A_0     C     0.3053     0.594     0.4943
A_3     C     0.5812     0.6569     0.8979
A_3     C     0.1382     0.9511     0.8079
A_0     C     0.5884     0.5278     0.6032
A_1     C     0.4802     0.4493     0.9007
A_0     C     0.8109     0.8779     0.956
A_0     C     0.9888     0.3748     0.8492
A_0     C     0.1921     0.7194     0.8527
A_2     C     0.9086     0.2547     0.7351
A_3     C     0.3412     0.5873     0.9225
A_1     C     0.4272     0.1583     0.9983
A_3     C     0.9135     0.472     0.5071
A_2     C     0.2408     0.3396     0.5855
A_1     C     0.493     0.5701     0.7956
A_0     C     0.0379     0.4468     0.3999
A_0     C     0.6553     0.6824     0.0873
A_1     C     0.2054     0.2955     0.3725
A_1     C     0.5296     0.7681     0.9543
A_2     C     0.7603     0.6239     0.4006
A_0     C     0.9298     0.1499     0.7703
A_1     C     0.2506     0.5748     0.541
A_2     C     0.8191     0.3718     0.1782
A_0     C     0.7146     0.0098     0.8815
A_1     C     0.6513     0.3093     0.8635
A_0     C     0.6779     0.3262     0.2004
A_3     C     0.2299     0.6508     0.0388
A_1     C     0.2952     0.5535     0.9574
A_0     C     0.4641     0.5273     0.4846
A_0     C     0.9588     0.2796     0.6509
A_2     C     0.7997     0.1547     0.0451
A_3     C     0.5201     0.0037     0.8883
A_2     C     0.5951     0.9415     0.8544
A_3     C     0.4211     0.7899     0.3734
A_3     C     0.2297     0.8643     0.4799
A_3     C     0.2187     0.6083     0.2684
A_2     C     0.2822     0.6073     0.3163
A_0     C     0.4956     0.0449     0.8055
A_2     C     0.4535     0.2415     0.8831
A_0     C     0.9605     0.991     0.1982
A_1     C     0.6586     0.5376     0.1816
A_2     C     0.8572     0.1084     0.2769
A_2     C     0.355     0.9898     0.0454
A_1     C     0.6825     0.1559     0.8324
A_2     C     0.5284     0.1813     0.4088
A_0     C     0.0695     0.5579     0.8448
A_3     C     0.0853     0.9743     0.0928
A_1     C     0.4826     0.6951     0.791
A_3     C     0.3411     0.7023     0.6382
A_2     C     0.0655     0.9356     0.114
A_0     C     0.9853     0.8004     0.892
A_1     C     0.7589     0.002     0.3066
A_0     C     0.9182     0.1732     0.2629
A_3     C     0.1792     0.3162     0.8428
A_0     C     0.9386     0.1145     0.5038
A_0     C     0.685     0.5027     0.0541
A_2     C     0.6465     0.9358     0.067
A_2     C     0.8601     0.3443     0.5424
A_0     C     0.2033     0.1334     0.6584
A_1     C     0.7727     0.9414     0.7891
A_3     C     0.0313     0.1526     0.2209
A_3     C     0.4549     0.0108     0.8886
A_3     C     0.3829     0.2453     0.6929
A_3     C     0.4159     0.7452     0.7995
A_3     C     0.3443     0.7971     0.6643
A_0     C     0.0645     0.5209     0.5392
A_3     C     0.879     0.9819     0.5219
A_2     C     0.8376     0.5951     0.2061
A_0     C     0.3685     0.5836     0.4532
A_1     C     0.9573     0.799     0.9831
A_1     C     0.4146     0.0821     0.6342
A_0     C     0.5164     0.2253     0.3768
A_3     C     0.4828     0.8413     0.9858
A_2     C     0.5167     0.925     0.8719
A_3     C     0.3797     0.6255     0.9844
A_0     C     0.9551     0.3487     0.1536
A_3     C     0.0601     0.2936     0.3135
A_2     C     0.4457     0.5731     0.4559
A_0     C     0.1451     0.4591     0.564
A_1     C     0.1739     0.5841     0.7523
A_2     C     0.5226     0.4576     0.0446
A_0     C     0.9011     0.0321     0.2536
A_2     C     0.0376     0.101     0.2649
A_3     C     0.0031     0.1449     0.1418
A_0     C     0.5593     0.1834     0.3843
A_2     C     0.4949     0.7875     0.9839
A_0     C     0.868     0.1455     0.8866
A_0     C     0.2175     0.9704     0.2513
A_1     C     0.53     0.2568     0.6907
A_2     C     0.5009     0.2538     0.1195
A_0     C     0.5597     0.748     0.5295
A_2     C     0.8397     0.6465     0.7543
A_1     C     0.9949     0.8559     0.9649
A_1     C     0.911     0.2465     0.3989
A_3     C     0.5376     0.9512     0.5678
A_1     C     0.378     0.6283     0.7248
A_3     C     0.664     0.6674     0.9412
A_3     C     0.6061     0.7753     0.7146
A_2     C     0.4068     0.7757     0.7667
A_0     C     0.3813     0.588     0.9567
A_1     C     0.0305     0.9755     0.8782
A_3     C     0.8415     0.9984     0.2365
A_2     C     0.1736     0.1186     0.2701
A_0     C     0.8339     0.3219     0.7473
A_2     C     0.4606     0.8214     0.125
A_2     C     0.7746     0.2873     0.8897
A_3     C     0.2188     0.6773     0.9966
A_3     C     0.6067     0.7647     0.5335
A_3     C     0.0014     0.1545     0.7522
A_0     C     0.3237     0.7052     0.3585
A_1     C     0.2496     0.4159     0.2381
A_3     C     0.6776     0.4187     0.3961
A_2     C     0.1575     0.3065     0.3212
A_1     C     0.0464     0.1542     0.1867
A_1     C     0.8273     0.3433     0.0994
A_3     C     0.7328     0.4826     0.9113
A_3     C     0.0158     0.3672     0.7704
A_2     C     0.8416     0.1123     0.2713
A_1     C     0.2705     0.8103     0.2966
A_0     C     0.5669     0.4012     0.1711
A_1     C     0.5377     0.0449     0.2538
A_0     C     0.941     0.061     0.6699
A_2     C     0.499     0.4001     0.6418
A_2     C     0.0672     0.2492     0.7811
A_1     C     0.6603     0.7939     0.9691
A_1     C     0.3006     0.0653     0.9165
A_1     C     0.8158     0.388     0.9001
A_0     C     0.8691     0.9548     0.7291
A_2     C     0.7659     0.7218     0.0322
A_0     C     0.4018     0.2513     0.9639
A_1     C     0.4958     0.8416     0.6728
A_3     C     0.5955     0.1921     0.428
A_3     C     0.9924     0.117     0.2146
A_3     C     0.2819     0.8159     0.1215
A_2     C     0.8916     0.5908     0.1667
A_1     C     0.559     0.3288     0.8776
A_2     C     0.5635     0.9766     0.6672
A_2     C     0.0033     0.719     0.0667
A_1     C     0.6778     0.6802     0.4768
A_3     C     0.9408     0.2973     0.299
A_1     C     0.4224     0.1637     0.6098
A_2     C     0.0193     0.1512     0.9986
A_1     C     0.8871     0.8773     0.6237
A_2     C     0.6087     0.0959     0.2796
A_1     C     0.0595     0.4602     0.0357
A_1     C     0.4621     0.365     0.0526
A_2     C     0.8328     0.2387     0.8108
A_1     C     0.5275     0.9011     0.8897
A_3     C     0.4278     0.684     0.9647
A_1     C     0.603     0.814     0.1197
A_0     C     0.375     0.8234     0.0637
A_1     C     0.2789     0.0963     0.8908
A_3     C     0.1566     0.4089     0.6743
A_2     C     0.5709     0.9     0.5997
A_0     C     0.6174     0.4507     0.8324
A_0     C     0.0567     0.8279     0.2422
A_2     C     0.1053     0.9472     0.8937
A_3     C     0.8573     0.072     0.9511
A_2     C     0.8881     0.2172     0.6676
A_2     C     0.1501     0.8985     0.7032
A_0     C     0.9945     0.6271     0.9196
A_2     C     0.456     0.7832     0.2087
A_0     C     0.9985     0.1374     0.0048
A_1     C     0.7785     0.3446     0.1561
A_2     C     0.7875     0.6918     0.1297
A_3     C     0.4521     0.2564     0.1568
A_0     C     0.7203     0.7781     0.42
A_3     C     0.1008     0.5996     0.9922
A_0     C     0.9245     0.4234     0.508
A_1     C     0.6102     0.6105     0.9821
A_2     C     0.2133     0.9597     0.778
A_2     C     0.5247     0.059     0.5636
A_1     C     0.5552     0.6909     0.1771
A_2     C     0.4594     0.7023     0.1739
A_1     C     0.6514     0.3528     0.1586
A_3     C     0.9728     0.1973     0.4886
A_3     C     0.0995     0.5158     0.3932
A_3     C     0.1164     0.0207     0.0656
A_3     C     0.9932     0.4234     0.7789
A_0     C     0.0092     0.3909     0.2024
A_1     C     0.8575     0.0086     0.4507
A_1     C     0.2899     0.1145     0.4502
A_0     C     0.423     0.1059     0.4614
A_3     C     0.8112     0.4494     0.1808
A_1     C     0.5271     0.1028     0.3794
A_3     C     0.6294     0.3073     0.9293
A_2     C     0.4014     0.1949     0.4338
A_1     C     0.0207     0.1221     0.3536
A_0     C     0.3589     0.9832     0.1459
A_0     C     0.217     0.3449     0.6412
A_2     C     0.5574     0.8969     0.1754
A_0     C     0.3712     0.5038     0.9143
A_2     C     0.5832     0.6753     0.3254
A_3     C     0.0771     0.5646     0.4624
A_1     C     0.7765     0.195     0.6907
A_2     C     0.1401     0.8278     0.9487
A_1     C     0.2767     0.68     0.9983
A_3     C     0.8531     0.3781     0.6518
A_2     C     0.843     0.4608     0.8696
A_2     C     0.9083     0.9424     0.9613
A_1     C     0.7852     0.5878     0.9814
A_0     C     0.9007     0.4487     0.7672
A_0     C     0.1251     0.9851     0.5803
A_3     C     0.8945     0.3426     0.86
A_3     C     0.0794     0.7787     0.9099
A_1     C     0.1726     0.9503     0.1776
A_1     C     0.7956     0.3926     0.5644
A_2     C     0.5555     0.5753     0.5714
A_0     C     0.3729     0.5945     0.8276
A_0     C     0.0242     0.7253     0.1511
A_1     C     0.8691     0.4961     0.4821
A_0     C     0.9148     0.2459     0.6382
A_3     C     0.9684     0.1371     0.4493
A_3     C     0.7317     0.3157     0.5185
A_2     C     0.4406     0.4232     0.4745
A_3     C     0.7649     0.3837     0.5202
A_0     C     0.586     0.1553     0.7304
A_0     C     0.3368     0.3184     0.8939
A_3     C     0.2917     0.964     0.4976
A_0     C     0.1167     0.5341     0.9991
A_0     C     0.7539     0.52     0.7438
A_0     C     0.0127     0.2712     0.1229
A_3     C     0.5744     0.4522     0.9436
A_2     C     0.4918     0.8206     0.5631
A_2     C     0.9063     0.577     0.3202
A_0     C     0.5536     0.3467     0.7914
A_2     C     0.1964     0.2696     0.9276
A_3     C     0.709     0.4438     0.0319
A_1     C     0.1225     0.7104     0.8155
A_2     C     0.5079     0.7181     0.9087
A_1     C     0.186     0.3903     0.8494
A_0     C     0.1957     0.1775     0.547
A_3     C     0.2684     0.8414     0.2418
A_1     C     0.9892     0.7097     0.2687
A_3     C     0.8064     0.4113     0.8302
A_2     C     0.7037     0.5741     0.5814
A_3     C     0.2332     0.2392     0.4169
A_3     C     0.8144     0.6745     0.1975
A_1     C     0.9851     0.5219     0.4044
A_2     C     0.5074     0.9819     0.9385
A_0     C     0.9429     0.9603     0.7934
A_2     C     0.7957     0.4918     0.0889
A_0     C     0.2045     0.6181     0.4475
A_3     C     0.8021     0.2197     0.1313
A_1     C     0.8717     0.3534     0.048
A_3     C     0.7996     0.8319     0.8839
A_0     C     0.0777     0.6986     0.3577
A_2     C     0.5903     0.8478     0.6295
A_2     C     0.8793     0.0577     0.8303
A_1     C     0.2869     0.1021     0.8296
A_0     C     0.5755     0.2677     0.0666
A_0     C     0.6211     0.4025     0.3425
A_2     C     0.7547     0.017     0.7099
A_2     C     0.9484     0.035     0.2233
A_0     C     0.7745     0.0517     0.6529
A_3     C     0.7958     0.1703     0.171
A_0     C     0.7968     0.3101     0.3849
A_0     C     0.3147     0.274     0.8859
A_1     C     0.3371     0.693     0.2621
A_3     C     0.6428     0.9583     0.1534
A_2     C     0.8619     0.4565     0.5039
A_3     C     0.2542     0.5697     0.3767
A_2     C     0.9101     0.2763     0.5411
A_3     C     0.167     0.8299     0.3112
A_0     C     0.1573     0.7597     0.648
A_3     C     0.2335     0.1592     0.6827
A_1     C     0.1668     0.2972     0.0014
A_0     C     0.476     0.9748     0.8433
A_3     C     0.8094     0.9646     0.2366
A_2     C     0.527     0.3681     0.7312
A_3     C     0.0411     0.4121     0.2595
A_2     C     0.6956     0.5381     0.1666
A_2     C     0.8026     0.815     0.6459
A_1     C     0.2461     0.0314     0.8468
A_3     C     0.4624     0.4527     0.1409
A_3     C     0.9853     0.1452     0.2017
A_2     C     0.514     0.8397     0.8394
A_2     C     0.7409     0.9573     0.0383
A_1     C     0.2257     0.825     0.5848
A_0     C     0.7042     0.1195     0.3952
A_3     C     0.2472     0.7387     0.0194
A_1     C     0.4157     0.8312     0.3327
A_2     C     0.0511     0.6249     0.2447
A_2     C     0.688     0.9002     0.5521
A_1     C     0.3517     0.0324     0.5733
A_2     C     0.9585     0.3245     0.9624
A_3     C     0.7335     0.0603     0.4236
A_1     C     0.1043     0.564     0.1205
A_0     C     0.3504     0.0517     0.8118
A_2     C     0.6211     0.426     0.1196
A_3     C     0.9969     0.6245     0.6581
A_1     C     0.5342     0.4167     0.5326
A_0     C     0.4724     0.89     0.1835
A_1     C     0.3642     0.5046     0.2788
A_1     C     0.3832     0.0035     0.7373
A_1     C     0.8334     0.7504     0.2107
A_1     C     0.7468     0.3433     0.7443
A_2     C     0.9532     0.7372     0.7201
A_2     C     0.3203     0.6319     0.0262
A_3     C     0.8559     0.398     0.843
A_2     C     0.4643     0.649     0.6091
A_2     C     0.0989     0.3527     0.5299
A_0     C     0.8924     0.1882     0.788
A_1     C     0.0251     0.2042     0.9713
A_2     C     0.4168     0.9433     0.0031
A_1     C     0.033     0.5532     0.0033
A_2     C     0.3902     0.9358     0.4354
A_3     C     0.8195     0.3367     0.0164
A_2     C     0.6086     0.7196     0.3415
A_3     C     0.0401     0.4903     0.8362
A_3     C     0.3427     0.7415     0.2847
A_2     C     0.609     0.8336     0.1537
A_0     C     0.1718     0.4482     0.1512
A_1     C     0.1631     0.1259     0.6901
A_3     C     0.3879     0.8973     0.8986
A_2     C     0.403     0.5483     0.2038
A_3     C     0.478     0.8883     0.9039
A_2     C     0.191     0.2014     0.9096
A_3     C     0.8178     0.8919     0.1365
A_0     C     0.7339     0.8755     0.4213
A_2     C     0.4586     0.8498     0.2969
A_2     C     0.977     0.3069     0.3011
A_1     C     0.0159     0.1624     0.1984
A_1     C     0.6584     0.6459     0.6488
A_2     C     0.6774     0.7451     0.1039
A_2     C     0.8401     0.4784     0.52
A_2     C     0.151     0.7841     0.5722
A_3     C     0.8343     0.3101     0.0715
A_1     C     0.6084     0.6003     0.8513
A_3     C     0.3124     0.6572     0.8438
A_1     C     0.3727     0.171     0.2449
A_2     C     0.5305     0.7286     0.1843
A_3     C     0.4982     0.1245     0.5073
A_1     C     0.5909     0.4535     0.7216
A_1     C     0.2403     0.182     0.2136
A_2     C     0.3918     0.3426     0.1696
A_0     C     0.4856     0.9014     0.9251
A_2     C     0.5229     0.4127     0.9414
A_3     C     0.9933     0.0909     0.1075
A_2     C     0.0118     0.5661     0.8425
A_3     C     0.4284     0.1942     0.3565
A_3     C     0.2825     0.5451     0.9113
A_1     C     0.7715     0.1127     0.561
A_1     C     0.2542     0.6851     0.6821
A_2     C     0.0504     0.7048     0.0669
A_1     C     0.9525     0.2852     0.8917
A_1     C     0.4239     0.606     0.1045
A_2     C     0.2505     0.1637     0.1113
A_0     C     0.4288     0.9699     0.446
A_0     C     0.8815     0.1998     0.9505
A_2     C     0.262     0.2567     0.2273
A_2     C     0.7071     0.409     0.6612
A_1     C     0.9941     0.7032     0.8042
A_2     C     0.8708     0.1409     0.989
A_1     C     0.6054     0.1904     0.838
A_0     C     0.0877     0.9485     0.4635
A_3     C     0.1759     0.0438     0.4298
A_2     C     0.1807     0.1229     0.2301
A_0     C     0.3607     0.2238     0.3229
A_3     C     0.5421     0.9031     0.2735
A_2     C     0.6993     0.2244     0.9617
A_2     C     0.4096     0.7689     0.2188
A_2     C     0.2647     0.4359     0.8267
A_2     C     0.4788     0.4428     0.0442
A_1     C     0.7203     0.8232     0.2709
A_2     C     0.8625     0.0455     0.3358
A_3     C     0.5688     0.7776     0.7301
A_2     C     0.5381     0.2141     0.4011
A_0     C     0.7347     0.2273     0.3601
A_1     C     0.0192     0.9174     0.4989
A_0     C     0.3803     0.5953     0.2204
A_1     C     0.4718     0.786     0.0238
A_0     C     0.1764     0.897     0.8596
A_2     C     0.2155     0.7045     0.9494
A_2     C     0.9832     0.3455     0.5163
A_0     C     0.343     0.0135     0.8088
A_0     C     0.1021     0.741     0.5689
A_3     C     0.1217     0.4152     0.2205
A_1     C     0.7896     0.4719     0.7993
A_3     C     0.633     0.7147     0.8085
A_2     C     0.5371     0.4505     0.5195
A_1     C     0.7612     0.1897     0.863
A_2     C     0.7618     0.0169     0.6779
A_0     C     0.6793     0.979     0.512
A_1     C     0.0675     0.4458     0.7238
A_2     C     0.7199     0.7631     0.681
A_3     C     0.4428     0.4242     0.4904
A_2     C     0.5102     0.4159     0.3616
A_1     C     0.2567     0.3149     0.751
A_1     C     0.1395     0.7113     0.8173
A_0     C     0.0357     0.9556     0.1624
A_1     C     0.921     0.3911     0.133
A_3     C     0.7971     0.5878     0.6223
A_3     C     0.8834     0.8547     0.7909
A_0     C     0.5781     0.0005     0.4457
A_2     C     0.1252     0.6816     0.6344
A_0     C     0.8829     0.0847     0.2714
A_2     C     0.1508     0.0639     0.0441
A_0     C     0.2009     0.5657     0.7329
A_3     C     0.4303     0.5595     0.2748
A_3     C     0.1994     0.7288     0.6912
A_0     C     0.8982     0.686     0.2266
A_3     C     0.2626     0.402     0.7406
A_0     C     0.3048     0.7464     0.2128
A_3     C     0.351     0.313     0.5056
A_1     C     0.7734     0.4091     0.0435
A_2     C     0.9174     0.7967     0.2348
A_1     C     0.7629     0.6743     0.1976
A_0     C     0.9018     0.3204     0.1604
A_1     C     0.4911     0.0861     0.2998
A_2     C     0.9806     0.9807     0.8693
A_3     C     0.2901     0.2887     0.5341
A_3     C     0.9058     0.0771     0.1084
A_3     C     0.5724     0.4145     0.8309
A_0     C     0.7177     0.0125     0.1653
A_3     C     0.9085     0.0739     0.6253
A_1     C     0.5558     0.6636     0.6677
A_1     C     0.4999     0.6829     0.0556
A_0     C     0.7497     0.3101     0.1718
A_3     C     0.8932     0.5333     0.7702
A_2     C     0.21     0.3363     0.7033
A_0     C     0.9559     0.0521     0.1524
A_2     C     0.5566     0.4865     0.1629
A_0     C     0.5374     0.5667     0.4668
A_3     C     0.4975     0.5771     0.0793
A_0     C     0.0847     0.839     0.736
A_3     C     0.2589     0.7796     0.7179
A_2     C     0.1892     0.0361     0.9572
A_1     C     0.8865     0.4666     0.1884
A_3     C     0.1662     0.2444     0.318
A_2     C     0.7642     0.8526     0.6762
A_1     C     0.0969     0.6355     0.191
A_2     C     0.9028     0.8384     0.8278
A_1     C     0.465     0.4613     0.4299
A_0     C     0.6091     0.7375     0.3955
A_2     C     0.4565     0.7125     0.6619
A_1     C     0.2328     0.8875     0.1965
A_2     C     0.159     0.9382     0.2133
A_3     C     0.265     0.8588     0.172
A_3     C     0.3809     0.5158     0.5611
A_1     C     0.7645     0.8391     0.722
A_1     C     0.0035     0.8401     0.3654
A_0     C     0.5181     0.2769     0.6445
A_3     C     0.7819     0.817     0.1194
A_0     C     0.6457     0.0279     0.2333
A_0     C     0.7275     0.3261     0.745
A_0     C     0.9676     0.9707     0.6074
A_0     C     0.4126     0.1732     0.9823
A_2     C     0.0301     0.0112     0.3346
A_3     C     0.9741     0.9916     0.3754
A_3     C     0.4474     0.3653     0.7308
A_1     C     0.9993     0.8412     0.7995
A_3     C     0.2363     0.0178     0.5829
A_2     C     0.7403     0.0312     0.4098
A_3     C     0.5622     0.9494     0.8036
A_3     C     0.9995     0.2807     0.2227
A_1     C     0.8091     0.0532     0.6218
A_3     C     0.5536     0.2949     0.0162
A_1     C     0.2533     0.701     0.4688
A_0     C     0.673     0.0926     0.9401
A_1     C     0.5779     0.7716     0.4429
A_3     C     0.8706     0.5833     0.0382
A_3     C     0.7831     0.2047     0.4865
A_3     C     0.7738     0.8397     0.1899
A_3     C     0.5139     0.0718     0.7582
A_3     C     0.453     0.6359     0.0286
A_2     C     0.3316     0.8879     0.7327
A_1     C     0.54     0.1768     0.4272
A_2     C     0.6979     0.8392     0.7144
A_3     C     0.7307     0.1695     0.5542
A_3     C     0.5379     0.4771     0.2792
A_1     C     0.4926     0.1694     0.8687
A_0     C     0.6771     0.1964     0.3152
A_0     C     0.3476     0.6309     0.4814
A_3     C     0.9083     0.0748     0.8303
A_1     C     0.1695     0.018     0.867
A_0     C     0.2571     0.66     0.5889
A_0     C     0.7146     0.857     0.3048
A_2     C     0.484     0.5874     0.8031
A_1     C     0.5827     0.6191     0.4683
A_0     C     0.6369     0.989     0.2798
A_2     C     0.2425     0.7922     0.1636
A_1     C     0.8144     0.9894     0.9052
A_0     C     0.5622     0.0646     0.311
A_1     C     0.129     0.4356     0.3884
A_2     C     0.3688     0.8267     0.0399
A_2     C     0.8356     0.9836     0.1019
A_3     C     0.6569     0.3653     0.6797
A_2     C     0.821     0.4236     0.4829
A_0     C     0.9246     0.166     0.1474
A_0     C     0.1487     0.7281     0.95
A_0     C     0.8851     0.4988     0.7597
A_0     C     0.021     0.1097     0.2811
A_3     C     0.1185     0.6227     0.0103
A_0     C     0.0218     0.0146     0.0231
A_3     C     0.9895     0.8017     0.0686
A_1     C     0.2925     0.9048     0.8747
A_3     C     0.9298     0.8164     0.6577
A_2     C     0.594     0.1637     0.9375
A_1     C     0.1033     0.3402     0.0456
A_2     C     0.1326     0.2956     0.6142
A_0     C     0.2164     0.3677     0.8344
A_3     C     0.7877     0.6587     0.4369
A_0     C     0.1673     0.7068     0.8416
A_1     C     0.6532     0.1224     0.8606
A_3     C     0.9392     0.9123     0.815
A_2     C     0.1223     0.9897     0.6961
A_3     C     0.0549     0.1388     0.1666
A_1     C     0.3706     0.7333     0.1931
A_0     C     0.7143     0.237     0.4993
A_2     C     0.3126     0.4794     0.6106
A_1     C     0.4456     0.0062     0.269
A_2     C     0.8056     0.8809     0.5346
A_1     C     0.5792     0.0577     0.1644
A_2     C     0.3309     0.0289     0.0965
A_3     C     0.6727     0.0947     0.2467
A_3     C     0.0696     0.3667     0.215
A_3     C     0.8785     0.5518     0.4532
A_1     C     0.0714     0.3821     0.4995
A_3     C     0.726     0.2265     0.8773
A_3     C     0.1454     0.3018     0.0555
A_1     C     0.6363     0.4172     0.4292
A_1     C     0.0298     0.9101     0.752
A_1     C     0.1897     0.9544     0.1348
A_0     C     0.1973     0.1642     0.8759
A_2     C     0.4467     0.0478     0.1989
A_2     C     0.8593     0.2956     0.6778
A_0     C     0.4746     0.2211     0.259
A_0     C     0.2216     0.1002     0.5491
A_1     C     0.3731     0.9539     0.0159
A_0     C     0.426     0.5204     0.276
A_3     C     0.3147     0.2661     0.7564
A_3     C     0.9617     0.2887     0.0609
A_3     C     0.2061     0.6388     0.7019
A_0     C     0.8741     0.9206     0.6218
A_0     C     0.9192     0.2377     0.1774
A_1     C     0.8132     0.5493     0.8823
A_1     C     0.3074     0.3202     0.5802
A_0     C     0.0066     0.2501     0.988
A_3     C     0.8549     0.6738     0.7942
A_0     C     0.5118     0.9787     0.9003
A_1     C     0.6913     0.9445     0.7537
A_1     C     0.6218     0.8862     0.3566
A_0     C     0.5686     0.7853     0.0126
A_2     C     0.5132     0.2315     0.9116
A_2     C     0.9469     0.4998     0.3526
A_2     C     0.5653     0.0747     0.4755
A_2     C     0.8032     0.6716     0.4555
A_1     C     0.5476     0.3155     0.846
A_3     C     0.9193     0.7453     0.511
A_2     C     0.8917     0.583     0.3285
A_3     C     0.239     0.5003     0.7295
A_3     C     0.4099     0.4335     0.7182
A_2     C     0.0223     0.915     0.3676
A_2     C     0.3661     0.2211     0.198
A_1     C     0.9885     0.3335     0.4136
A_1     C     0.8926     0.3266     0.6075
A_2     C     0.7226     0.6978     0.2325
A_2     C     0.3861     0.5113     0.8834
A_2     C     0.7143     0.4701     0.2994
A_3     C     0.7347     0.0165     0.1681
A_0     C     0.5548     0.7044     0.6281
A_1     C     0.717     0.097     0.8565
A_3     C     0.0685     0.5977     0.0723
A_0     C     0.1047     0.0994     0.5936
A_0     C     0.1589     0.0734     0.5833
A_0     C     0.2372     0.3653     0.0008
A_1     C     0.6685     0.3314     0.1811
A_1     C     0.1828     0.2506     0.8605
A_3     C     0.5815     0.5774     0.7558
A_0     C     0.5316     0.4542     0.4415
A_2     C     0.5388     0.2309     0.9833
A_2     C     0.5443     0.7903     0.1357
A_1     C     0.3839     0.6278     0.5795
A_0     C     0.4263     0.5386     0.6988
A_1     C     0.2656     0.7141     0.7246
A_3     C     0.2639     0.6132     0.8433
A_1     C     0.3729     0.2479     0.7053
A_0     C     0.8842     0.6908     0.1666
A_2     C     0.5622     0.5698     0.1582
A_0     C     0.7335     0.5946     0.3753
A_2     C     0.1891     0.6607     0.3722
A_1     C     0.0603     0.2947     0.8674
A_1     C     0.0452     0.1187     0.4827
A_1     C     0.4958     0.4305     0.39
A_0     C     0.3765     0.207     0.5545
A_0     C     0.8498     0.4935     0.6248
A_0     C     0.5299     0.9308     0.1916
A_0     C     0.9902     0.9058     0.247
A_2     C     0.5478     0.343     0.0708
A_1     C     0.0665     0.5988     0.0799
A_3     C     0.811     0.6375     0.9431
A_3     C     0.3736     0.2674     0.0125
A_1     C     0.6623     0.9883     0.9747
A_0     C     0.916     0.5341     0.2593
A_1     C     0.6449     0.7617     0.7557
A_3     C     0.7413     0.3804     0.7634
A_1     C     0.216     0.7019     0.9529
A_1     C     0.2801     0.8478     0.239
A_0     C     0.9822     0.9633     0.0266
A_1     C     0.9097     0.8999     0.1631
A_1     C     0.4213     0.9513     0.6471
A_1     C     0.5877     0.9556     0.0188
A_2     C     0.6018     0.5654     0.0018
A_3     C     0.4279     0.8756     0.8366
A_2     C     0.0239     0.2867     0.041
A_3     C     0.302     0.6922     0.0716
A_3     C     0.5389     0.0713     0.2972
A_3     C     0.6426     0.761     0.9987
A_2     C     0.4653     0.8596     0.8217
A_3     C     0.4823     0.0163     0.982
A_2     C     0.8013     0.4441     0.7441
A_0     C     0.3094     0.5372     0.6068
A_2     C     0.2997     0.6548     0.4005
A_3     C     0.8613     0.9993     0.3744
A_3     C     0.9564     0.8287     0.6643
A_3     C     0.0607     0.0527     0.291
A_3     C     0.5604     0.2959     0.3834
A_0     C     0.617     0.3133     0.1121
A_1     C     0.3682     0.139     0.2854
A_1     C     0.3619     0.9268     0.1978
A_1     C     0.8783     0.1007     0.8351
A_0     C     0.4244     0.6051     0.6542
A_2     C     0.1338     0.9222     0.7985
A_1     C     0.4903     0.3807     0.4873
A_1     C     0.0103     0.5243     0.8711
A_3     C     0.9561     0.19     0.9142
A_0     C     0.6389     0.3867     0.553
A_1     C     0.5162     0.7067     0.7895
A_0     C     0.993     0.6133     0.9119
A_1     C     0.1583     0.8149     0.2162
A_0     C     0.1172     0.462     0.3004
A_1     C     0.2227     0.5906     0.6601
A_3     C     0.4189     0.086     0.012
A_0     C     0.6039     0.9102     0.3462
A_0     C     0.0051     0.7573     0.204
A_3     C     0.9954     0.4812     0.7963
A_0     C     0.1354     0.4945     0.4125
A_0     C     0.1926     0.879     0.0899
A_0     C     0.482     0.1514     0.6971
A_3     C     0.6505     0.4859     0.1673
A_1     C     0.1241     0.2671     0.6427
A_3     C     0.8872     0.4257     0.4079
A_2     C     0.1663     0.7515     0.8795
A_3     C     0.8731     0.6     0.1529
A_0     C     0.8224     0.147     0.9897
A_2     C     0.9675     0.356     0.9636
A_0     C     0.371     0.2485     0.6639
A_1     C     0.8122     0.0984     0.3781
A_0     C     0.0127     0.9677     0.2941
A_0     C     0.5437     0.5691     0.3579
A_3     C     0.7886     0.2787     0.8697
A_0     C     0.6291     0.482     0.2354
A_3     C     0.2756     0.0008     0.5735
A_1     C     0.1191     0.1853     0.6934
A_0     C     0.8147     0.7218     0.3545
A_2     C     0.1733     0.1938     0.4069
A_1     C     0.2866     0.3491     0.7424
A_2     C     0.2954     0.9416     0.5459
A_3     C     0.8629     0.6397     0.0413
A_2     C     0.6845     0.2035     0.5038
A_1     C     0.3478     0.6597     0.0972
A_2     C     0.2685     0.7191     0.42
A_3     C     0.1807     0.1531     0.6061
A_0     C     0.7245     0.1924     0.5322
A_2     C     0.5733     0.6302     0.5614
A_3     C     0.1367     0.6785     0.0864
A_3     C     0.6725     0.9237     0.9413
A_3     C     0.1222     0.3446     0.9477
A_1     C     0.6907     0.8101     0.1304
A_0     C     0.1587     0.0562     0.3759
A_2     C     0.0047     0.9761     0.1643
A_2     C     0.2633     0.2592     0.6264
A_3     C     0.3129     0.5736     0.6833
A_3     C     0.0739     0.836     0.3685
A_3     C     0.1595     0.701     0.8175
A_0     C     0.6892     0.7862     0.8871
A_2     C     0.0648     0.4266     0.5199
A_0     C     0.6021     0.2621     0.488
A_2     C     0.1127     0.3388     0.6019
A_2     C     0.5677     0.4256     0.0515
A_1     C     0.3434     0.4758     0.5294
A_2     C     0.8168     0.7705     0.7617
A_3     C     0.9974     0.7169     0.9808
A_2     C     0.9099     0.3871     0.4523
A_3     C     0.645     0.1512     0.5189
A_1     C     0.9645     0.7034     0.0446
A_1     C     0.2279     0.0751     0.6992
A_0     C     0.0738     0.689     0.1542
A_0     C     0.4024     0.9428     0.8429
A_1     C     0.4041     0.291     0.0504
A_2     C     0.2023     0.326     0.6815
A_2     C     0.1206     0.4087     0.0498
A_2     C     0.7932     0.9241     0.118
A_2     C     0.8825     0.0315     0.8716
A_0     C     0.5323     0.4101     0.3943
A_1     C     0.574     0.6928     0.4517
A_2     C     0.8429     0.1085     0.9941
A_3     C     0.0764     0.6106     0.7362
A_1     C     0.4981     0.4777     0.5097
A_3     C     0.0916     0.6469     0.445
A_3     C     0.2424     0.5097     0.1581
A_0     C     0.3602     0.5013     0.1989
A_2     C     0.4146     0.6233     0.0498
A_3     C     0.4943     0.0681     0.2277
A_0     C     0.4032     0.4791     0.7486
A_2     C     0.0605     0.064     0.1548
A_3     C     0.9153     0.1317     0.6854
A_3     C     0.4766     0.396     0.357
A_1     C     0.4595     0.3721     0.4204
A_0     C     0.2179     0.1809     0.6218
A_3     C     0.3662     0.7292     0.9072
A_1     C     0.8051     0.6261     0.8133
A_1     C     0.7161     0.0098     0.286
A_2     C     0.4767     0.1818     0.9717
A_3     C     0.0602     0.4242     0.4566
A_1     C     0.1645     0.3177     0.4498
A_2     C     0.582     0.948     0.1281
A_2     C     0.1311     0.0844     0.8313
A_1     C     0.2418     0.1024     0.269
A_3     C     0.7044     0.2687     0.2343
A_2     C     0.9178     0.874     0.311
A_3     C     0.2724     0.9853     0.9269
A_1     C     0.1427     0.7827     0.1913
A_1     C     0.1005     0.9104     0.782
A_3     C     0.3513     0.1761     0.4112
A_1     C     0.6621     0.0352     0.2233
A_0     C     0.0788     0.3613     0.9004
A_1     C     0.6557     0.424     0.1292
A_3     C     0.6648     0.3963     0.8602
A_3     C     0.557     0.7506     0.7212
A_1     C     0.0384     0.9966     0.8329
A_0     C     0.2075     0.1461     0.0474
A_2     C     0.6432     0.2362     0.5842
A_3     C     0.1674     0.4143     0.1261
A_3     C     0.2927     0.2648     0.5323
A_2     C     0.0532     0.4302     0.8861
A_3     C     0.4082     0.4038     0.1895
A_0     C     0.4411     0.4496     0.3596
A_2     C     0.8683     0.5872     0.7708
A_0     C     0.8376     0.4668     0.7669
A_0     C     0.2672     0.3721     0.216
A_1     C     0.2     0.1474     0.8466
A_3     C     0.468     0.0332     0.4782
A_0     C     0.411     0.8685     0.3847
A_2     C     0.0306     0.9406     0.2321
A_0     C     0.6414     0.7932     0.8487
A_3     C     0.8793     0.3357     0.9183
A_2     C     0.9985     0.48     0.0857
A_1     C     0.785     0.6188     0.5526
A_1     C     0.3019     0.5439     0.3962
A_1     C     0.6971     0.8646     0.2931
A_1     C     0.1669     0.8894     0.9343
A_3     C     0.7012     0.0209     0.4471
A_2     C     0.5022     0.8333     0.2652
A_2     C     0.8399     0.362     0.6603
A_1     C     0.2022     0.3449     0.2995
A_2     C     0.5684     0.463     0.8108
A_1     C     0.0638     0.4436     0.6952
A_3     C     0.4143     0.6832     0.2104
A_2     C     0.4999     0.6445     0.3711
A_2     C     0.0919     0.8988     0.0201
A_2     C     0.6181     0.5933     0.5435
A_3     C     0.4351     0.186     0.1202
A_0     C     0.651     0.3039     0.884
A_2     C     0.622     0.9505     0.2779
A_2     C     0.0052     0.1256     0.3426
A_0     C     0.8233     0.9095     0.1658
A_2     C     0.8213     0.3777     0.4748
A_3     C     0.9835     0.1657     0.4607
A_1     C     0.9307     0.9965     0.7193
A_0     C     0.9382     0.2867     0.9487
A_3     C     0.5077     0.9045     0.28
A_3     C     0.176     0.2431     0.0125
A_1     C     0.2681     0.3627     0.4974
A_1     C     0.4327     0.7444     0.7693
A_3     C     0.7927     0.1964     0.9713
A_3     C     0.4063     0.537     0.8995
A_0     C     0.4475     0.4314     0.4658
A_2     C     0.5672     0.9013     0.3643
A_0     C     0.4863     0.3567     0.0433
A_1     C     0.7155     0.8982     0.3787
A_2     C     0.8291     0.6871     0.9891
A_2     C     0.5605     0.7199     0.8669
A_2     C     0.383     0.6061     0.8098
A_1     C     0.4431     0.5887     0.9986
A_2     C     0.8674     0.4523     0.6765
A_1     C     0.1843     0.0748     0.4899
A_0     C     0.4257     0.338     0.9189
A_0     C     0.3245     0.7889     0.7974
A_2     C     0.9348     0.2758     0.1583
A_1     C     0.5173     0.1696     0.5958
A_0     C     0.6648     0.0983     0.1349
A_3     C     0.4711     0.3185     0.9796
A_2     C     0.2962     0.5957     0.0121
A_3     C     0.9269     0.2499     0.2609
A_2     C     0.8221     0.4666     0.1664
A_2     C     0.9284     0.8365     0.1946
A_0     C     0.1545     0.1135     0.2136
A_0     C     0.1816     0.2696     0.5768
A_3     C     0.6297     0.338     0.1707
A_3     C     0.4418     0.3675     0.5673
A_2     C     0.1793     0.9584     0.7877
A_0     C     0.0054     0.0987     0.8433
A_2     C     0.2697     0.5529     0.0377
A_2     C     0.8435     0.327     0.031
A_3     C     0.9252     0.6751     0.1459
A_2     C     0.2915     0.7188     0.6812
A_3     C     0.2766     0.2705     0.3808
A_3     C     0.4317     0.7822     0.0975
A_3     C     0.8896     0.506     0.2759
A_1     C     0.5294     0.1458     0.3816
A_0     C     0.9345     0.0767     0.853
A_2     C     0.9497     0.5865     0.1631
A_3     C     0.3947     0.3388     0.2355
A_3     C     0.4356     0.7307     0.5278
A_2     C     0.4778     0.6285     0.5997
A_1     C     0.1744     0.534     0.557
A_1     C     0.3421     0.1867     0.8432
A_0     C     0.5318     0.0941     0.995
A_2     C     0.8912     0.9908     0.9155
A_2     C     0.2379     0.5083     0.8933
A_3     C     0.9264     0.9332     0.9896
A_0     C     0.8232     0.8606     0.1606
A_3     C     0.0641     0.1145     0.1369
A_2     C     0.6562     0.8769     0.8693
A_2     C     0.3607     0.0694     0.2359
A_0     C     0.64     0.8076     0.7155
A_2     C     0.3508     0.7601     0.0979
A_2     C     0.3738     0.5588     0.2076
A_2     C     0.1449     0.4221     0.4248
A_2     C     0.318     0.2704     0.922
A_1     C     0.3602     0.2677     0.6329
A_3     C     0.3413     0.316     0.724
A_2     C     0.9421     0.6141     0.4588
A_1     C     0.0593     0.4991     0.4939
A_2     C     0.4025     0.4962     0.9094
A_0     C     0.0786     0.1081     0.2547
A_1     C     0.0679     0.817     0.4888
A_0     C     0.6193     0.6966     0.9137
A_0     C     0.8911     0.6215     0.8802
A_3     C     0.3354     0.1492     0.1085
A_0     C     0.5357     0.9117     0.7226
A_0     C     0.336     0.4166     0.5375
A_2     C     0.6074     0.3153     0.662
A_3     C     0.3184     0.6699     0.3936
A_2     C     0.5008     0.5243     0.1144
A_1     C     0.0355     0.4855     0.0211
A_0     C     0.2189     0.2717     0.1892
A_3     C     0.1107     0.8602     0.7458
A_1     C     0.9555     0.3412     0.7145
A_1     C     0.2145     0.1946     0.4438
A_0     C     0.8835     0.877     0.8846
A_0     C     0.6406     0.9297     0.8551
A_2     C     0.6569     0.2052     0.0814
A_2     C     0.8757     0.1185     0.8752
A_3     C     0.9305     0.5654     0.4395
A_2     C     0.5153     0.1936     0.0246
A_3     C     0.0642     0.8739     0.2284
A_0     C     0.9709     0.1254     0.9767
A_1     C     0.2774     0.7073     0.3636
A_0     C     0.9156     0.1377     0.4891
A_0     C     0.3159     0.3819     0.2733
A_1     C     0.2208     0.3586     0.4409
A_0     C     0.8552     0.314     0.9244
A_0     C     0.7215     0.5152     0.9502
A_2     C     0.6059     0.2089     0.2958
A_3     C     0.8469     0.1405     0.9693
A_0     C     0.8085     0.0222     0.1462
A_1     C     0.9954     0.0829     0.9302
A_2     C     0.2929     0.8341     0.182
A_0     C     0.2813     0.3955     0.0405
A_3     C     0.6059     0.0624     0.6618
A_2     C     0.6971     0.8788     0.7763
A_0     C     0.317     0.3701     0.8914
A_1     C     0.3503     0.6346     0.1221
A_2     C     0.9551     0.9472     0.6447
A_1     C     0.0123     0.6472     0.4396
A_3     C     0.4565     0.9857     0.9896
A_1     C     0.0439     0.6656     0.4106
A_1     C     0.7758     0.4715     0.319
A_0     C     0.0534     0.0421     0.6679
A_1     C     0.4026     0.8186     0.125
A_0     C     0.7348     0.9063     0.4365
A_1     C     0.5575     0.7687     0.6027
A_3     C     0.0014     0.2942     0.9815
A_1     C     0.6915     0.3132     0.3233
A_1     C     0.2473     0.838     0.8917
A_2     C     0.5526     0.7726     0.0086
A_2     C     0.9068     0.3686     0.0901
A_1     C     0.7596     0.0134     0.9463
A_1     C     0.2313     0.4406     0.6778
A_1     C     0.3589     0.2551     0.9131
A_2     C     0.8314     0.3952     0.2639
A_0     C     0.4615     0.3005     0.4424
A_2     C     0.1397     0.6003     0.4271
A_1     C     0.8194     0.4044     0.1581
A_3     C     0.3792     0.5587     0.2215
A_3     C     0.7098     0.815     0.0152
A_2     C     0.7419     0.513     0.443
A_1     C     0.9815     0.9261     0.3403
A_1     C     0.2023     0.6982     0.9617
A_3     C     0.7978     0.1981     0.9962
A_0     C     0.429     0.0911     0.4273
A_2     C     0.0129     0.4241     0.1497
A_1     C     0.4337     0.8658     0.7763
A_0     C     0.4062     0.09     0.4385
A_3     C     0.4182     0.2108     0.7499
A_0     C     0.0791     0.5471     0.7403
A_3     C     0.7082     0.0271     0.2934
A_1     C     0.5646     0.1098     0.1197
A_3     C     0.42     0.9774     0.9268
A_2     C     0.1057     0.5428     0.2515
A_2     C     0.2427     0.2151     0.8099
A_3     C     0.2056     0.5694     0.466
A_3     C     0.8131     0.1364     0.9522
A_1     C     0.2593     0.986     0.4502
A_0     C     0.1821     0.8331     0.4058
A_0     C     0.0235     0.2464     0.6377
A_1     C     0.7139     0.7571     0.503
A_2     C     0.4606     0.503     0.3112
A_0     C     0.258     0.5971     0.0389
A_1     C     0.7174     0.2402     0.4656
A_1     C     0.8365     0.7064     0.8971
A_0     C     0.7534     0.9226     0.572
A_1     C     0.3128     0.3849     0.224
A_3     C     0.7482     0.1205     0.9094
A_0     C     0.0278     0.0174     0.175
A_3     C     0.7328     0.1751     0.1256
A_1     C     0.791     0.3536     0.8201
A_0     C     0.4002     0.2737     0.4584
A_0     C     0.0045     0.1799     0.742
A_3     C     0.8858     0.2805     0.1664
A_2     C     0.0762     0.9201     0.9965
A_1     C     0.6486     0.2596     0.3438
A_1     C     0.709     0.7948     0.6701
A_2     C     0.8337     0.0781     0.6079
A_3     C     0.6901     0.6533     0.8267
A_2     C     0.9867     0.5665     0.9967
A_3     C     0.1727     0.8629     0.9641
A_2     C     0.3592     0.0307     0.5824
A_3     C     0.4442     0.3334     0.019
A_1     C     0.9001     0.0784     0.1195
A_2     C     0.3594     0.3333     0.844
A_0     C     0.1322     0.9502     0.3091
A_0     C     0.8228     0.7486     0.1389
A_2     C     0.4074     0.3873     0.8087
A_2     C     0.1319     0.2865     0.0884
A_3     C     0.7819     0.0838     0.8984
A_3     C     0.7099     0.881     0.4821
A_3     C     0.5352     0.0054     0.7378
A_1     C     0.0668     0.7125     0.4776
A_3     C     0.4821     0.5791     0.0935
A_1     C     0.9677     0.2268     0.7696
A_3     C     0.7056     0.1495     0.3154
A_3     C     0.4647     0.7591     0.9721
A_3     C     0.1197     0.3224     0.1308
A_1     C     0.2974     0.1904     0.9392
A_3     C     0.604     0.0765     0.6779
A_3     C     0.6977     0.6245     0.7163
A_1     C     0.0319     0.943     0.2963
A_1     C     0.2643     0.2141     0.8037
A_2     C     0.4838     0.4375     0.4761
A_2     C     0.0995     0.1788     0.4407
A_2     C     0.0957     0.9017     0.7281
A_1     C     0.1502     0.3189     0.0189
A_1     C     0.7913     0.4042     0.2699
A_3     C     0.032     0.9706     0.4607
A_2     C     0.9914     0.2948     0.4967
A_2     C     0.5611     0.8123     0.0341
A_2     C     0.9182     0.6625     0.0071
A_1     C     0.6339     0.4994     0.0918
A_3     C     0.3986     0.1293     0.6867
A_3     C     0.2303     0.2446     0.2147
A_3     C     0.2907     0.248     0.0078
A_3     C     0.4504     0.8444     0.4471
A_2     C     0.2282     0.4192     0.3891
A_2     C     0.0113     0.3401     0.8817
A_1     C     0.1595     0.16     0.7767
A_1     C     0.075     0.6165     0.8124
A_2     C     0.3716     0.5185     0.1673
A_3     C     0.3179     0.3673     0.2011
A_2     C     0.3962     0.4659     0.9776
A_0     C     0.8259     0.3485     0.3463
A_3     C     0.0389     0.335     0.9908
A_0     C     0.8566     0.1259     0.6332
A_1     C     0.3518     0.9773     0.3231
A_1     C     0.4825     0.2045     0.8084
A_1     C     0.2996     0.28     0.2636
A_1     C     0.0422     0.3789     0.7391
A_2     C     0.2452     0.5859     0.0525
A_1     C     0.5271     0.5188     0.6581
A_2     C     0.0263     0.7229     0.6497
A_0     C     0.7837     0.107     0.7769
A_2     C     0.1217     0.5262     0.2325
A_3     C     0.2046     0.7656     0.4245
A_0     C     0.8888     0.9741     0.8834
A_0     C     0.0772     0.2299     0.1061
A_1     C     0.5506     0.4777     0.0852
A_0     C     0.6624     0.2861     0.3925
A_3     C     0.1423     0.6847     0.6432
A_2     C     0.6704     0.6995     0.672
A_3     C     0.9883     0.2868     0.8114
A_2     C     0.2764     0.6372     0.6205
A_3     C     0.2388     0.1404     0.3084
A_3     C     0.8753     0.8278     0.4355
A_2     C     0.34     0.1305     0.8422
A_3     C     0.5175     0.3748     0.4973
A_3     C     0.6999     0.4132     0.6841
A_3     C     0.8275     0.8908     0.4194
A_3     C     0.5915     0.1898     0.6842
A_2     C     0.729     0.8034     0.1834
A_0     C     0.7148     0.2096     0.9349
A_3     C     0.8142     0.4138     0.4214
A_0     C     0.4785     0.2165     0.5589
A_0     C     0.9006     0.6445     0.3391
A_3     C     0.1341     0.7278     0.2329
A_1     C     0.5087     0.9452     0.4299
A_0     C     0.2247     0.9325     0.0672
A_2     C     0.402     0.361     0.211
A_2     C     0.0276     0.8042     0.8448
A_3     C     0.9846     0.6146     0.7682
A_3     C     0.1887     0.2368     0.1523
A_0     C     0.1492     0.3281     0.283
A_1     C     0.4999     0.7329     0.8146
A_1     C     0.3504     0.0938     0.8222
A_1     C     0.2278     0.1136     0.6729
A_2     C     0.1664     0.4755     0.996
A_2     C     0.7431     0.6749     0.4306
A_3     C     0.7163     0.9093     0.5887
A_2     C     0.4317     0.7332     0.7137
A_0     C     0.6706     0.9871     0.5485
A_3     C     0.1184     0.613     0.1951
A_1     C     0.5654     0.9654     0.4907
A_2     C     0.1144     0.9858     0.9635
A_2     C     0.2136     0.6718     0.5791
A_1     C     0.695     0.845     0.1801
A_2     C     0.0501     0.1662     0.9018
A_0     C     0.389     0.9406     0.8235
A_1     C     0.7843     0.8084     0.691
A_3     C     0.2393     0.5812     0.2915
A_2     C     0.7765     0.2686     0.0421
A_3     C     0.8763     0.8695     0.3518
A_2     C     0.1778     0.6618     0.0576
A_1     C     0.4057     0.2459     0.2098
A_3     C     0.4449     0.6491     0.9013
A_0     C     0.8471     0.6256     0.7047
A_2     C     0.7181     0.028     0.9312
A_1     C     0.2754     0.0934     0.9685
A_2     C     0.0219     0.1013     0.0849
A_1     C     0.3876     0.1587     0.6919
A_1     C     0.8995     0.4104     0.1477
A_2     C     0.3176     0.1315     0.2372
A_0     C     0.5548     0.1219     0.2826
A_2     C     0.778     0.2213     0.5146
A_3     C     0.6706     0.4397     0.5078
A_2     C     0.6842     0.5481     0.3303
A_3     C     0.2458     0.7991     0.0388
A_0     C     0.2216     0.7366     0.5844
A_2     C     0.1996     0.474     0.9249
A_0     C     0.4904     0.7638     0.2381
A_1     C     0.0934     0.8397     0.3621
A_2     C     0.1893     0.8836     0.3292
A_1     C     0.0854     0.8458     0.7509
A_1     C     0.1737     0.0245     0.7803
A_2     C     0.7835     0.9066     0.3491
A_0     C     0.1962     0.2273     0.3805
A_1     C     0.7354     0.7214     0.7802
A_3     C     0.42     0.8101     0.6502
A_0     C     0.5054     0.1696     0.6837
A_0     C     0.1161     0.4092     0.7715
A_0     C     0.4778     0.8869     0.1516
A_1     C     0.9949     0.4516     0.6173
A_1     C     0.6432     0.3709     0.9716
A_2     C     0.1767     0.3147     0.943
A_0     C     0.794     0.4242     0.3103
A_0     C     0.0037     0.6159     0.8959
A_2     C     0.3628     0.0284     0.622
A_1     C     0.5897     0.5678     0.2746
A_2     C     0.1901     0.837     0.968
A_3     C     0.8867     0.5533     0.4931
A_3     C     0.7349     0.7435     0.915
A_0     C     0.1693     0.784     0.5155
A_3     C     0.1307     0.3507     0.7674
A_2     C     0.6271     0.5355     0.9694
A_1     C     0.8736     0.977     0.4878
A_1     C     0.7706     0.0389     0.155
A_2     C     0.681     0.1961     0.2954
A_2     C     0.0387     0.6524     0.805
A_2     C     0.7188     0.0991     0.9212
A_0     C     0.938     0.1109     0.0092
A_1     C     0.9954     0.3083     0.7849
A_0     C     0.8466     0.8613     0.8453
A_2     C     0.1917     0.8099     0.4405
A_3     C     0.7434     0.3148     0.4986
A_2     C     0.3753     0.8493     0.1071
A_1     C     0.8089     0.513     0.2314
A_2     C     0.9376     0.0969     0.6374
A_2     C     0.1506     0.3504     0.8317
A_2     C     0.7497     0.1193     0.0521
A_3     C     0.1866     0.5132     0.2022
A_3     C     0.6673     0.9968     0.52
A_1     C     0.0215     0.7766     0.3639
A_1     C     0.0816     0.6656     0.5049
A_3     C     0.399     0.854     0.7701
A_3     C     0.4869     0.1072     0.8991
A_0     C     0.8044     0.5307     0.4808
A_0     C     0.4057     0.1553     0.7723
A_1     C     0.0686     0.5109     0.9115
A_0     C     0.2119     0.0002     0.8503
A_1     C     0.561     0.1385     0.3959
A_1     C     0.3264     0.3146     0.538
A_1     C     0.9767     0.8359     0.0534
A_0     C     0.8116     0.299     0.9684
A_2     C     0.632     0.8511     0.722
A_2     C     0.0135     0.0281     0.3944
A_2     C     0.6631     0.7112     0.5737
A_0     C     0.0045     0.6542     0.5154
A_3     C     0.4929     0.6918     0.906
A_0     C     0.9281     0.2761     0.3969
A_2     C     0.337     0.9554     0.5344
A_3     C     0.4903     0.2984     0.5116
A_2     C     0.6285     0.3015     0.5343
A_1     C     0.3698     0.192     0.7503
A_3     C     0.9868     0.9627     0.187
A_3     C     0.3625     0.9965     0.4057
A_3     C     0.1536     0.0012     0.7374
A_3     C     0.4981     0.2266     0.6546
A_3     C     0.7201     0.657     0.7777
A_3     C     0.5679     0.8676     0.423
A_3     C     0.758     0.0104     0.3565
A_1     C     0.4937     0.8928     0.8247
A_3     C     0.0986     0.0293     0.8507
A_0     C     0.5858     0.8667     0.2365
A_2     C     0.1205     0.7943     0.9027
A_0     C     0.7356     0.4635     0.0158
A_3     C     0.4845     0.2181     0.5393
A_0     C     0.6878     0.9577     0.681
A_1     C     0.5872     0.0529     0.644
A_1     C     0.9887     0.0408     0.0362
A_3     C     0.3123     0.5198     0.536
A_3     C     0.2878     0.3357     0.472
A_3     C     0.4072     0.6248     0.4956
A_3     C     0.857     0.7808     0.5072
A_0     C     0.3153     0.6159     0.7232
A_0     C     0.7841     0.6075     0.3226
A_0     C     0.8133     0.8444     0.9246
A_3     C     0.3553     0.6435     0.3371
A_2     C     0.0416     0.4186     0.4588
A_2     C     0.7134     0.6299     0.862
A_2     C     0.979     0.0875     0.9176
A_3     C     0.1157     0.7681     0.0532
A_1     C     0.7869     0.484     0.9028
A_3     C     0.8625     0.9913     0.8263
A_1     C     0.9759     0.2774     0.6619
A_0     C     0.4218     0.7432     0.3314
A_3     C     0.0111     0.0785     0.8244
A_3     C     0.764     0.7592     0.5724
A_2     C     0.8451     0.4665     0.8364
A_0     C     0.0951     0.3529     0.6228
A_0     C     0.0477     0.2132     0.5946
A_0     C     0.8407     0.9047     0.5415
A_2     C     0.2398     0.037     0.7448
A_2     C     0.8382     0.4596     0.3692
A_0     C     0.7765     0.7767     0.2244
A_2     C     0.9917     0.138     0.8301
A_1     C     0.9762     0.7085     0.9648
A_2     C     0.1597     0.0186     0.0984
A_1     C     0.5722     0.3708     0.7572
A_0     C     0.6208     0.1442     0.1884
A_0     C     0.5365     0.7304     0.4762
A_3     C     0.1078     0.9697     0.6024
A_1     C     0.5089     0.9109     0.2771
A_3     C     0.4715     0.7004     0.3327
A_2     C     0.4801     0.8302     0.6016
A_2     C     0.0369     0.9524     0.7658
A_3     C     0.9787     0.2767     0.615
A_1     C     0.6904     0.7296     0.3604
A_2     C     0.7099     0.2019     0.1406
A_1     C     0.1063     0.0261     0.7911
A_1     C     0.5832     0.8792     0.8335
A_2     C     0.6084     0.9977     0.1121
A_3     C     0.5298     0.5777     0.6077
A_3     C     0.4188     0.9779     0.0032
A_3     C     0.1184     0.4894     0.9122
A_1     C     0.3215     0.6703     0.6567
A_0     C     0.7196     0.0058     0.528
A_3     C     0.32     0.5827     0.2349
A_0     C     0.4708     0.6082     0.2659
A_1     C     0.8645     0.6563     0.3742
A_3     C     0.3525     0.3256     0.8417
A_2     C     0.4428     0.0466     0.2962
A_3     C     0.3587     0.2973     0.7056
A_3     C     0.6388     0.4576     0.3491
A_0     C     0.6358     0.1891     0.9068
A_3     C     0.8394     0.5125     0.9465
A_1     C     0.5319     0.2398     0.4352
A_0     C     0.0331     0.8248     0.9284
A_2     C     0.7234     0.0819     0.1381
A_0     C     0.1374     0.884     0.0591
A_3     C     0.9705     0.9098     0.2718
A_0     C     0.502     0.2113     0.2143
A_0     C     0.6469     0.9674     0.4204
A_0     C     0.1982     0.4631     0.0082
A_0     C     0.2587     0.0792     0.0265
A_0     C     0.5048     0.2093     0.254
A_0     C     0.3557     0.8464     0.3351
A_2     C     0.6692     0.6111     0.0593
A_2     C     0.3378     0.8434     0.9856
A_2     C     0.8093     0.8404     0.3373
A_1     C     0.9173     0.076     0.2764
A_0     C     0.794     0.211     0.3108
A_0     C     0.0635     0.7022     0.7673
A_0     C     0.3132     0.293     0.7113
A_1     C     0.9025     0.8551     0.4454
A_3     C     0.4066     0.1924     0.0382
A_0     C     0.0208     0.606     0.7544
A_1     C     0.0018     0.0597     0.8511
A_3     C     0.2901     0.186     0.5084
A_0     C     0.783     0.0899     0.8563
A_2     C     0.7633     0.4411     0.222
A_2     C     0.247     0.8346     0.3136
A_1     C     0.3519     0.0965     0.0503
A_3     C     0.1901     0.4054     0.0503
A_0     C     0.2934     0.3131     0.5674
A_0     C     0.738     0.1782     0.2527
A_1     C     0.7197     0.2758     0.1371
A_3     C     0.4576     0.794     1.0
A_0     C     0.7753     0.5903     0.3819
A_0     C     0.4776     0.441     0.1568
A_1     C     0.2606     0.582     0.4423
A_0     C     0.2495     0.7486     0.9135
A_2     C     0.4411     0.0046     0.6406
A_0     C     0.3644     0.7201     0.1705
A_0     C     0.8321     0.347     0.6016
A_3     C     0.4467     0.5798     0.6637
A_3     C     0.7809     0.8015     0.773
A_1     C     0.7333     0.1177     0.961
A_1     C     0.1575     0.4489     0.3704
A_0     C     0.5091     0.3439     0.37
A_3     C     0.8111     0.6983     0.0165
A_2     C     0.5894     0.0083     0.8885
A_3     C     0.1967     0.0078     0.1004
A_3     C     0.6454     0.8612     0.2643
A_1     C     0.9785     0.0733     0.1951
A_0     C     0.4186     0.6983     0.9051
A_2     C     0.0726     0.1347     0.625
A_1     C     0.8761     0.7757     0.1154
A_3     C     0.8437     0.488     0.364
A_3     C     0.1998     0.5754     0.7436
A_0     C     0.2096     0.2842     0.3108
A_1     C     0.6438     0.7264     0.2727
A_3     C     0.7303     0.0908     0.5778
A_3     C     0.4261     0.8917     0.1482
A_0     C     0.7948     0.9396     0.698
A_3     C     0.0749     0.871     0.3235
A_2     C     0.5427     0.7172     0.9379
A_3     C     0.2331     0.5994     0.7476
A_2     C     0.521     0.1216     0.3458
A_3     C     0.8345     0.7991     0.7748
A_2     C     0.0351     0.6457     0.557
A_2     C     0.8337     0.16     0.1057
A_0     C     0.2534     0.9     0.8807
A_1     C     0.5932     0.8482     0.6727
A_0     C     0.5216     0.5726     0.1606
A_2     C     0.582     0.9119     0.0233
A_0     C     0.0497     0.0077     0.9376
A_3     C     0.2076     0.7188     0.1631
A_2     C     0.8098     0.2031     0.2832
A_2     C     0.5923     0.6868     0.105
A_0     C     0.4404     0.0998     0.0222
A_2     C     0.4997     0.6221     0.93
A_2     C     0.2217     0.3614     0.4444
A_2     C     0.0539     0.1463     0.4145
A_3     C     0.5831     0.9651     0.0731
A_2     C     0.8673     0.8192     0.6977
A_1     C     0.4056     0.2594     0.5012
A_1     C     0.3745     0.3882     0.0805
A_1     C     0.0977     0.2697     0.8608
A_3     C     0.0106     0.3799     0.8204
A_3     C     0.7172     0.0876     0.1166
A_1     C     0.921     0.8423     0.6195
A_0     C     0.7976     0.2724     0.1255
A_0     C     0.2187     0.5883     0.1307
A_1     C     0.1033     0.9667     0.2868
A_0     C     0.7736     0.7587     0.2506
A_3     C     0.6153     0.6634     0.4188
A_2     C     0.6978     0.3432     0.9298
A_1     C     0.1175     0.1174     0.2581
A_1     C     0.5188     0.2918     0.7496
A_2     C     0.0745     0.258     0.0208
A_0     C     0.8592     0.048     0.1805
A_0     C     0.6971     0.8209     0.3894
A_2     C     0.7526     0.0768     0.6497
A_3     C     0.2467     0.7753     0.2674
A_2     C     0.1067     0.5171     0.186
A_1     C     0.0996     0.1461     0.8594
A_2     C     0.2529     0.3585     0.3304
A_1     C     0.5999     0.4356     0.0959
A_2     C     0.5685     0.9049     0.5542
A_0     C     0.0894     0.248     0.5531
A_3     C     0.8665     0.7545     0.7716
A_2     C     0.0592     0.5094     0.8688
A_0     C     0.6862     0.6572     0.9771
A_2     C     0.4062     0.8407     0.8123
A_0     C     0.8921     0.4824     0.0094
A_0     C     0.7837     0.9332     0.7809
A_1     C     0.9563     0.9134     0.0427
A_3     C     0.2344     0.3335     0.3287
A_0     C     0.6764     0.7503     0.1726
A_0     C     0.8661     0.2109     0.9682
A_3     C     0.3418     0.3398     0.6808
A_0     C     0.989     0.8351     0.42
A_3     C     0.8392     0.7248     0.4161
A_1     C     0.0177     0.3023     0.719
A_3     C     0.4834     0.255     0.7792
A_3     C     0.5551     0.3115     0.8211
A_0     C     0.5096     0.5141     0.2054
A_3     C     0.6807     0.5746     0.141
A_1     C     0.053     0.2392     0.6014
A_1     C     0.9965     0.3047     0.999
A_2     C     0.2564     0.2052     0.127
A_1     C     0.7316     0.1755     0.9538
A_0     C     0.1808     0.586     0.167
A_1     C     0.1548     0.6585     0.348
A_0     C     0.2631     0.01     0.5549
A_3     C     0.2809     0.2992     0.6938
A_2     C     0.8281     0.3427     0.8549
A_1     C     0.4276     0.7096     0.234
A_1     C     0.7474     0.1512     0.5572
A_1     C     0.1417     0.9643     0.1505
A_3     C     0.9161     0.9537     0.934
A_2     C     0.3278     0.0015     0.4899
A_0     C     0.331     0.9566     0.198
A_1     C     0.3412     0.9464     0.1698
A_0     C     0.5506     0.4256     0.6744
A_2     C     0.0868     0.128     0.0418
A_1     C     0.4349     0.5911     0.6712
A_3     C     0.4907     0.2549     0.4809
A_1     C     0.0109     0.0542     0.5304
A_0     C     0.1977     0.1949     0.5746
A_3     C     0.7862     0.1767     0.0385
A_1     C     0.1946     0.6154     0.6179
A_3     C     0.2284     0.896     0.1889
A_3     C     0.1795     0.5007     0.0091
A_1     C     0.4077     0.3045     0.0076
A_1     C     0.3682     0.0977     0.6674
A_3     C     0.3584     0.3785     0.39
A_2     C     0.5949     0.819     0.3822
A_3     C     0.2467     0.1523     0.9698
A_3     C     0.8776     0.3386     0.6415
A_0     C     0.4165     0.0043     0.2519
A_2     C     0.135     0.4539     0.2604
A_3     C     0.3381     0.7955     0.7024
A_0     C     0.7771     0.0612     0.4027
A_2     C     0.1909     0.03     0.7457
A_0     C     0.9981     0.4327     0.1426
A_1     C     0.1964     0.3814     0.3543
A_3     C     0.0156     0.4933     0.7792
A_3     C     0.9195     0.7877     0.6152
A_2     C     0.4611     0.6728     0.4223
A_0     C     0.5083     0.3776     0.2461
A_1     C     0.3691     0.0353     0.6071
A_1     C     0.7256     0.7272     0.8687
A_3     C     0.2458     0.281     0.1654
A_0     C     0.4431     0.0562     0.9323
A_3     C     0.2117     0.8817     0.5525
A_2     C     0.6976     0.3744     0.2011
A_1     C     0.4107     0.8373     0.6746
A_1     C     0.4123     0.9806     0.6465
A_0     C     0.3285     0.1709     0.8609
A_3     C     0.1458     0.036     0.7335
A_3     C     0.2357     0.5242     0.0174
A_1     C     0.7072     0.3872     0.1721
A_3     C     0.6726     0.4135     0.3344
A_1     C     0.4789     0.4788     0.1091
A_1     C     0.9158     0.2845     0.1244
A_1     C     0.8487     0.9534     0.4627
A_1     C     0.2005     0.9368     0.1671
A_2     C     0.3053     0.6986     0.9663
A_2     C     0.3345     0.0762     0.9107
A_3     C     0.5057     0.1039     0.1883
A_0     C     0.4888     0.8317     0.1714
A_3     C     0.5553     0.7055     0.9865
A_2     C     0.3321     0.4817     0.6611
A_0     C     0.3379     0.1225     0.3392
A_3     C     0.0581     0.0094     0.1917
A_2     C     0.1327     0.2796     0.4114
A_0     C     0.3066     0.7273     0.5681
A_3     C     0.5522     0.8221     0.5645
A_0     C     0.4254     0.8734     0.7553
A_1     C     0.1897     0.4211     0.4625
A_2     C     0.8203     0.2836     0.8329
A_0     C     0.4823     0.0064     0.8361
A_1     C     0.1168     0.5587     0.5996
A_2     C     0.6013     0.7041     0.0943
A_0     C     0.9284     0.9287     0.6816
A_0     C     0.0165     0.0625     0.2461
A_1     C     0.8987     0.7126     0.2874
A_3     C     0.0781     0.0699     0.2952
A_0     C     0.0556     0.705     0.1427
A_3     C     0.938     0.2805     0.4574
A_2     C     0.2689     0.9266     0.5812
A_3     C     0.2812     0.1013     0.8525
A_1     C     0.8822     0.8972     0.1186
A_3     C     0.9666     0.3706     0.6065
A_1     C     0.1125     0.0736     0.1262
A_2     C     0.6411     0.0088     0.7209
A_2     C     0.5396     0.8359     0.9511
A_3     C     0.3133     0.3116     0.5813
A_3     C     0.0921     0.9554     0.4278
A_1     C     0.9388     0.4414     0.5874
A_1     C     0.786     0.5197     0.2022
A_3     C     0.8791     0.8205     0.9144
A_2     C     0.481     0.627     0.1517
A_0     C     0.1572     0.3957     0.8697
A_2     C     0.7392     0.725     0.4529
A_2     C     0.9105     0.1882     0.4587
A_1     C     0.8281     0.4854     0.2121
A_3     C     0.2449     0.4398     0.0211
A_3     C     0.9438     0.4079     0.9422
A_3     C     0.7865     0.7554     0.6772
A_1     C     0.7146     0.6159     0.0029
A_1     C     0.9815     0.7832     0.1065
A_0     C     0.9483     0.2695     0.3203
A_3     C     0.2558     0.7236     0.1785
A_2     C     0.1862     0.5077     0.2798
A_0     C     0.5276     0.1148     0.8574
A_1     C     0.347     0.075     0.5798
A_2     C     0.0608     0.3063     0.2725
A_1     C     0.594     0.6419     0.1348
A_1     C     0.3589     0.4362     0.4171
A_1     C     0.3158     0.5865     0.5819
A_2     C     0.0042     0.0857     0.9449
A_1     C     0.9052     0.8606     0.072
A_3     C     0.042     0.9613     0.088
A_0     C     0.6998     0.6197     0.7631
A_1     C     0.0711     0.2955     0.6636
A_3     C     0.605     0.2506     0.9671
A_2     C     0.538     0.9209     0.4179
A_0     C     0.0005     0.7514     0.1276
A_1     C     0.1538     0.9785     0.9879
A_0     C     0.0371     0.3467     0.5618
A_3     C     0.8098     0.0576     0.9811
A_0     C     0.7092     0.5733     0.4558
A_0     C     0.3071     0.074     0.3967
A_3     C     0.0634     0.8206     0.8285
A_2     C     0.2546     0.4681     0.1195
A_1     C     0.9873     0.3929     0.3509
A_2     C     0.4632     0.2615     0.0731
A_3     C     0.2205     0.2509     0.3267
A_2     C     0.0501     0.1407     0.2931
A_2     C     0.9524     0.5813     0.5836
A_3     C     0.3854     0.223     0.4652
A_0     C     0.9505     0.0322     0.7522
A_1     C     0.4722     0.516     0.2986
A_3     C     0.8076     0.645     0.8079
A_0     C     0.4077     0.46     0.4488
A_0     C     0.9154     0.6002     0.7275
A_1     C     0.0855     0.894     0.4057
A_3     C     0.5637     0.9058     0.3585
A_3     C     0.0948     0.8534     0.4527
A_0     C     0.7209     0.5516     0.6211
A_1     C     0.1753     0.0953     0.4104
A_3     C     0.4304     0.1826     0.4565
A_0     C     0.4436     0.4162     0.3379
A_1     C     0.5836     0.4973     0.1852
A_2     C     0.671     0.2957     0.0087
A_2     C     0.4088     0.9032     0.564
A_2     C     0.0307     0.0232     0.5243
A_2     C     0.6954     0.8449     0.1157
A_2     C     0.544     0.8795     0.4712
A_3     C     0.5622     0.3162     0.6623
A_0     C     0.3315     0.0436     0.6617
A_0     C     0.6477     0.1021     0.2577
A_0     C     0.5126     0.0106     0.6471
A_1     C     0.6949     0.3509     0.4555
A_0     C     0.8523     0.0672     0.347
A_3     C     0.2134     0.6224     0.2749
A_1     C     0.4643     0.9971     0.8936
A_1     C     0.7165     0.3324     0.4182
A_2     C     0.2466     0.0039     0.4107
A_0     C     0.586     0.1659     0.9612
A_0     C     0.3801     0.6834     0.0424
A_2     C     0.7476     0.766     0.2491
A_3     C     0.3051     0.2731     0.5475
A_3     C     0.2781     0.0307     0.8314
A_0     C     0.6151     0.5677     0.3128
A_1     C     0.6024     0.0015     0.076
A_1     C     0.6501     0.373     0.7326
A_3     C     0.1901     0.0743     0.6434
A_1     C     0.3695     0.901     0.5689
A_0     C     0.8851     0.2748     0.8667
A_3     C     0.5861     0.6314     0.3023
A_0     C     0.374     0.9685     0.9703
A_0     C     0.1287     0.1602     0.705
A_2     C     0.2251     0.8222     0.8396
A_3     C     0.5915     0.6592     0.9917
A_2     C     0.3949     0.2282     0.4613
A_3     C     0.7896     0.8244     0.3581
A_0     C     0.9525     0.6477     0.95
A_2     C     0.3319     0.0805     0.8104
A_0     C     0.3875     0.9614     0.7578
A_3     C     0.3201     0.3678     0.2111
A_0     C     0.1674     0.9038     0.0804
A_0     C     0.4953     0.8966     0.4486
A_2     C     0.3943     0.2478     0.9245
A_1     C     0.5036     0.9112     0.3561
A_0     C     0.5048     0.5736     0.2458
A_2     C     0.4769     0.1816     0.019
A_1     C     0.095     0.3341     0.462
A_1     C     0.4445     0.8507     0.3978
A_1     C     0.4652     0.8193     0.04
A_2     C     0.7933     0.8357     0.7639
A_3     C     0.6563     0.3374     0.4265
A_0     C     0.1369     0.9287     0.6103
A_2     C     0.6578     0.5552     0.5892
A_0     C     0.8099     0.15     0.862
A_1     C     0.1208     0.8716     0.6064
A_0     C     0.4021     0.2766     0.9197
A_1     C     0.1699     0.24     0.5441
A_0     C     0.9621     0.5314     0.7738
A_2     C     0.7838     0.4661     0.3574
A_0     C     0.1139     0.3884     0.4603
A_0     C     0.1173     0.2378     0.234
A_3     C     0.8671     0.4131     0.1218
A_1     C     0.6516     0.1286     0.251
A_0     C     0.8831     0.9352     0.8116
A_0     C     0.4544     0.3493     0.6496
A_0     C     0.5902     0.4636     0.1442
A_0     C     0.3477     0.6033     0.8515
A_2     C     0.0465     0.9137     0.6319
A_1     C     0.4749     0.0645     0.9296
A_1     C     0.3972     0.9785     0.6257
A_1     C     0.4997     0.8261     0.0235
A_3     C     0.5533     0.7749     0.2084
A_0     C     0.9952     0.9892     0.3568
A_2     C     0.5008     0.6993     0.7506
A_0     C     0.2616     0.383     0.0661
A_0     C     0.2987     0.8433     0.9843
A_1     C     0.2023     0.9449     0.9652
A_0     C     0.8434     0.8724     0.7964
A_1     C     0.3045     0.7465     0.5436
A_3     C     0.4768     0.1239     0.5386
A_2     C     0.244     0.6874     0.1741
A_3     C     0.9134     0.5842     0.2743
A_1     C     0.3217     0.4011     0.6661
A_2     C     0.6301     0.4514     0.1005
A_2     C     0.992     0.5723     0.0301
A_3     C     0.1554     0.7867     0.9123
A_0     C     0.9952     0.5344     0.0545
A_2     C     0.1128     0.5287     0.9516
A_1     C     0.7041     0.1813     0.7935
A_2     C     0.3974     0.4345     0.2502
A_3     C     0.6108     0.4195     0.1561
A_2     C     0.0773     0.8281     0.221
A_3     C     0.0264     0.8966     0.5031
