MAT-32

loop_
_symmetry_equiv_pos_as_xyz
  x,y,z
_cell_length_a          50.4819
_cell_length_b          27.6442
_cell_length_c          24.6505
_cell_angle_alpha       90.0000
_cell_angle_beta        90.0000
_cell_angle_gamma       90.0000
loop_
_atom_site_label
_atom_site_type_symbol
_atom_site_fract_x
_atom_site_fract_y
_atom_site_fract_z
A_0     C     0.8241     0.0481     0.1127
A_1     C     0.488     0.8178     0.5283
A_1     C     0.6204     0.6943     0.1466
A_2     C     0.5202     0.2654     0.9587
A_3     C     0.0873     0.1685     0.0621
A_3     C     0.4256     0.8334     0.2256
A_1     C     0.4013     0.6048     0.0035
A_1     C     0.801     0.144     0.8754
A_2     C     0.7027     0.4923     0.1697
A_0     C     0.9626     0.7958     0.2263
A_3     C     0.0841     0.2614     0.5144
A_3     C     0.7776     0.1243     0.6342
A_2     C     0.4555     0.2506     0.768
A_3     C     0.3394     0.7242     0.498
A_1     C     0.8092     0.8167     0.3546
A_0     C     0.4076     0.9283     0.6805
A_2     C     0.6819     0.1784     0.4372
A_2     C     0.3705     0.9033     0.8953
A_3     C     0.0555     0.0629     0.2073
A_1     C     0.2657     0.1951     0.8569
A_3     C     0.1135     0.8235     0.9271
A_0     C     0.402     0.3345     0.2058
A_1     C     0.9349     0.3595     0.7677
A_1     C     0.9577     0.1624     0.1788
A_1     C     0.6301     0.4892     0.4296
A_3     C     0.4434     0.2649     0.0659
A_0     C     0.4837     0.5498     0.0131
A_1     C     0.7131     0.8841     0.1423
A_1     C     0.7804     0.3057     0.2066
A_2     C     0.093     0.5091     0.205
A_2     C     0.8546     0.395     0.7429
A_1     C     0.4726     0.0264     0.2413
A_0     C     0.6292     0.6894     0.4099
A_3     C     0.0281     0.1195     0.4464
A_2     C     0.2396     0.4802     0.3837
A_1     C     0.2769     0.0936     0.9512
A_0     C     0.6813     0.633     0.3502
A_2     C     0.9567     0.0102     0.665
A_3     C     0.978     0.4773     0.3764
A_0     C     0.3321     0.1159     0.9787
A_3     C     0.6747     0.4356     0.4594
A_2     C     0.9328     0.6375     0.5055
A_3     C     0.3905     0.4957     0.7658
A_0     C     0.6912     0.8586     0.8439
A_0     C     0.9546     0.9801     0.7618
A_2     C     0.2822     0.3606     0.8699
A_2     C     0.1393     0.0022     0.72
A_0     C     0.5259     0.3186     0.7643
A_1     C     0.534     0.8892     0.9527
A_2     C     0.4734     0.1108     0.2838
A_2     C     0.2768     0.2016     0.8561
A_3     C     0.2397     0.5789     0.8663
A_0     C     0.4378     0.922     0.3833
A_1     C     0.931     0.5845     0.4893
A_3     C     0.3487     0.7454     0.9748
A_0     C     0.7323     0.8785     0.2392
A_1     C     0.3348     0.1499     0.8311
A_1     C     0.38     0.3903     0.0389
A_0     C     0.2116     0.4267     0.1232
A_1     C     0.9878     0.5502     0.9091
A_2     C     0.6965     0.3078     0.269
A_1     C     0.3504     0.4789     0.8884
A_2     C     0.642     0.4798     0.222
A_2     C     0.8523     0.2577     0.8921
A_3     C     0.1294     0.85     0.0936
A_2     C     0.051     0.9391     0.1986
A_0     C     0.0517     0.9563     0.7001
A_1     C     0.588     0.8268     0.1619
A_0     C     0.9222     0.3917     0.3851
A_1     C     0.4032     0.9691     0.2515
A_2     C     0.9456     0.7534     0.8388
A_2     C     0.3509     0.4014     0.0457
A_0     C     0.4292     0.1541     0.2679
A_2     C     0.7741     0.8334     0.9722
A_0     C     0.7219     0.0164     0.3499
A_2     C     0.2408     0.8915     0.8736
A_0     C     0.0813     0.947     0.8868
A_2     C     0.7896     0.8899     0.4662
A_2     C     0.8536     0.2384     0.4737
A_3     C     0.3406     0.9622     0.1595
A_3     C     0.6255     0.8794     0.4045
A_3     C     0.3648     0.2273     0.3793
A_3     C     0.5764     0.553     0.8719
A_1     C     0.912     0.9179     0.0684
A_2     C     0.5053     0.902     0.3192
A_0     C     0.4138     0.242     0.0661
A_0     C     0.2738     0.2642     0.1112
A_1     C     0.6771     0.0018     0.2792
A_2     C     0.3845     0.9348     0.9665
A_0     C     0.9017     0.2472     0.3431
A_0     C     0.1233     0.3     0.912
A_2     C     0.3663     0.2863     0.7925
A_2     C     0.8948     0.2855     0.4697
A_2     C     0.2569     0.0906     0.0112
A_1     C     0.3663     0.6415     0.0044
A_1     C     0.846     0.7934     0.7818
A_2     C     0.8705     0.1995     0.2648
A_1     C     0.7868     0.1317     0.4732
A_1     C     0.6294     0.3076     0.3636
A_0     C     0.519     0.0806     0.3995
A_0     C     0.0211     0.291     0.3948
A_1     C     0.4283     0.171     0.9484
A_1     C     0.1958     0.1832     0.3451
A_3     C     0.6547     0.6188     0.0211
A_0     C     0.9178     0.2793     0.0777
A_1     C     0.0104     0.7551     0.8254
A_3     C     0.522     0.256     0.6697
A_2     C     0.7992     0.1783     0.4429
A_2     C     0.1784     0.3466     0.4946
A_2     C     0.1567     0.0628     0.196
A_3     C     0.6489     0.7686     0.1432
A_0     C     0.7183     0.8638     0.1606
A_0     C     0.6752     0.2437     0.4181
A_1     C     0.4514     0.4007     0.3337
A_1     C     0.8382     0.0756     0.2025
A_2     C     0.3451     0.2645     0.7814
A_1     C     0.4378     0.3794     0.8207
A_2     C     0.0637     0.0534     0.8852
A_1     C     0.4612     0.1595     0.1873
A_0     C     0.4824     0.0402     0.9002
A_0     C     0.2071     0.7283     0.1447
A_3     C     0.4982     0.8374     0.8599
A_3     C     0.6757     0.2629     0.9446
A_1     C     0.4698     0.2959     0.4638
A_1     C     0.1273     0.6497     0.9623
A_2     C     0.6855     0.3482     0.8898
A_1     C     0.9485     0.224     0.6382
A_0     C     0.3121     0.1783     0.9275
A_3     C     0.4206     0.5948     0.3981
A_0     C     0.753     0.1082     0.9042
A_2     C     0.3559     0.3339     0.5268
A_2     C     0.275     0.3822     0.2267
A_3     C     0.0462     0.4968     0.8225
A_1     C     0.7504     0.1808     0.6185
A_0     C     0.0658     0.2515     0.5387
A_0     C     0.8193     0.9093     0.293
A_3     C     0.8224     0.9094     0.9602
A_1     C     0.8005     0.4351     0.9776
A_1     C     0.2581     0.4471     0.6232
A_2     C     0.5052     0.4782     0.5183
A_1     C     0.6379     0.4653     0.236
A_2     C     0.6466     0.2729     0.2046
A_1     C     0.311     0.5008     0.7875
A_1     C     0.5175     0.6411     0.4862
A_1     C     0.2095     0.5216     0.7623
A_2     C     0.7646     0.476     0.0677
A_3     C     0.7126     0.4973     0.3347
A_3     C     0.4452     0.6925     0.1264
A_1     C     0.6622     0.7614     0.0824
A_3     C     0.1399     0.7574     0.9216
A_1     C     0.3908     0.5485     0.9409
A_1     C     0.4446     0.8943     0.4088
A_2     C     0.1679     0.78     0.8874
A_2     C     0.2516     0.3585     0.8034
A_2     C     0.7611     0.91     0.8862
A_3     C     0.9985     0.2811     0.8028
A_3     C     0.2883     0.7199     0.6986
A_2     C     0.7245     0.9362     0.0473
A_3     C     0.2809     0.474     0.118
A_1     C     0.0377     0.3618     0.6812
A_2     C     0.4619     0.1459     0.0218
A_2     C     0.7523     0.6932     0.4732
A_2     C     0.7533     0.1349     0.9135
A_2     C     0.8885     0.0673     0.1318
A_1     C     0.6919     0.6094     0.991
A_0     C     0.4252     0.9316     0.7955
A_0     C     0.1249     0.0551     0.6882
A_1     C     0.9156     0.372     0.0285
A_3     C     0.5863     0.0097     0.97
A_2     C     0.8292     0.6474     0.254
A_3     C     0.8275     0.3484     0.0973
A_2     C     0.4999     0.8946     0.7242
A_1     C     0.1672     0.6649     0.7943
A_0     C     0.4876     0.8396     0.3344
A_2     C     0.9504     0.2873     0.0219
A_3     C     0.3308     0.4711     0.9944
A_0     C     0.8649     0.677     0.4925
A_0     C     0.7016     0.8097     0.3303
A_1     C     0.4178     0.5993     0.0176
A_0     C     0.785     0.3432     0.132
A_1     C     0.4047     0.3345     0.0326
A_0     C     0.5235     0.3169     0.4173
A_1     C     0.8868     0.9641     0.0701
A_0     C     0.6811     0.7071     0.381
A_2     C     0.83     0.9645     0.1664
A_2     C     0.2775     0.0154     0.9909
A_3     C     0.0798     0.2899     0.0118
A_3     C     0.542     0.3541     0.2193
A_3     C     0.2937     0.3962     0.2428
A_3     C     0.1523     0.7642     0.4253
A_2     C     0.3488     0.1709     0.5404
A_2     C     0.5484     0.2187     0.1823
A_3     C     0.178     0.5144     0.252
A_2     C     0.7744     0.0559     0.3474
A_0     C     0.9071     0.8417     0.5885
A_3     C     0.4534     0.1472     0.1037
A_2     C     0.8588     0.2776     0.4266
A_1     C     0.6548     0.388     0.7365
A_2     C     0.6045     0.6941     0.7392
A_3     C     0.13     0.7032     0.9544
A_0     C     0.266     0.5143     0.325
A_3     C     0.9252     0.0846     0.5218
A_3     C     0.2416     0.4803     0.9358
A_1     C     0.0821     0.4544     0.8466
A_2     C     0.7619     0.0515     0.4495
A_3     C     0.7416     0.2524     0.5081
A_0     C     0.4315     0.1578     0.8411
A_2     C     0.5111     0.8491     0.8898
A_3     C     0.2321     0.9702     0.2785
A_2     C     0.2886     0.568     0.606
A_1     C     0.2132     0.9819     0.2708
A_2     C     0.6952     0.5261     0.4548
A_3     C     0.2766     0.0959     0.9092
A_0     C     0.0315     0.8878     0.5379
A_0     C     0.8359     0.9372     0.2873
A_3     C     0.7559     0.0263     0.3679
A_3     C     0.1959     0.819     0.2824
A_3     C     0.0121     0.6402     0.2003
A_1     C     0.0844     0.505     0.8827
A_0     C     0.3969     0.543     0.3994
A_2     C     0.339     0.2779     0.4157
A_1     C     0.8586     0.79     0.1664
A_3     C     0.995     0.9838     0.6935
A_3     C     0.5759     0.0246     0.6196
A_1     C     0.7729     0.6194     0.864
A_2     C     0.4987     0.7179     0.6043
A_3     C     0.5135     0.8855     0.8487
A_2     C     0.5572     0.2854     0.3306
A_2     C     0.1117     0.9314     0.0977
A_1     C     0.1162     0.3666     0.0591
A_2     C     0.7168     0.4897     0.3721
A_1     C     0.9425     0.158     0.4149
A_3     C     0.6834     0.0264     0.3594
A_3     C     0.8182     0.1505     0.3721
A_3     C     0.6643     0.4502     0.6101
A_2     C     0.3769     0.3135     0.7966
A_2     C     0.1222     0.3592     0.4366
A_1     C     0.1332     0.3051     0.5348
A_3     C     0.2127     0.3547     0.2155
A_3     C     0.5769     0.7288     0.3858
A_2     C     0.2087     0.0756     0.1887
A_3     C     0.96     0.8405     0.2093
A_2     C     0.107     0.2257     0.6827
A_3     C     0.8254     0.074     0.1334
A_2     C     0.409     0.6175     0.0573
A_1     C     0.1001     0.519     0.6993
A_3     C     0.7486     0.4711     0.4587
A_0     C     0.2027     0.7111     0.93
A_0     C     0.9422     0.203     0.4772
A_2     C     0.3589     0.0383     0.9693
A_2     C     0.6437     0.5052     0.7196
A_1     C     0.1461     0.9227     0.6426
A_3     C     0.8954     0.6049     0.5277
A_0     C     0.1085     0.3842     0.2902
A_2     C     0.3426     0.9981     0.0739
A_1     C     0.8689     0.8001     0.5897
A_2     C     0.942     0.5161     0.2281
A_1     C     0.3759     0.0002     0.6659
A_3     C     0.293     0.2814     0.3103
A_3     C     0.3543     0.9739     0.3308
A_1     C     0.0476     0.4288     0.2695
A_0     C     0.093     0.6224     0.3784
A_1     C     0.6841     0.3408     0.7466
A_2     C     0.53     0.4374     0.4878
A_3     C     0.105     0.6138     0.9416
A_2     C     0.0149     0.4761     0.5772
A_2     C     0.165     0.0274     0.8268
A_2     C     0.5745     0.0723     0.2186
A_2     C     0.656     0.3651     0.1288
A_3     C     0.7085     0.7638     0.3537
A_1     C     0.5885     0.7185     0.0324
A_1     C     0.8718     0.2009     0.5888
A_3     C     0.3131     0.7061     0.8986
A_3     C     0.9105     0.6417     0.2697
A_3     C     0.8487     0.1579     0.179
A_3     C     0.7096     0.2164     0.2521
A_2     C     0.58     0.4935     0.6391
A_3     C     0.6647     0.4417     0.2655
A_2     C     0.6801     0.6015     0.8079
A_0     C     0.8981     0.6511     0.1897
A_0     C     0.6784     0.7152     0.1819
A_3     C     0.0058     0.9353     0.6996
A_2     C     0.1745     0.2927     0.373
A_2     C     0.8183     0.7259     0.8117
A_3     C     0.7858     0.4083     0.671
A_2     C     0.0672     0.6528     0.576
A_2     C     0.5291     0.9072     0.5637
A_2     C     0.3319     0.0106     0.6087
A_3     C     0.5393     0.9269     0.6257
A_1     C     0.9704     0.5785     0.6802
A_0     C     0.1258     0.3663     0.4147
A_2     C     0.009     0.6667     0.7735
A_0     C     0.9937     0.9302     0.5166
A_1     C     0.0508     0.6398     0.861
A_1     C     0.2966     0.3462     0.2769
A_0     C     0.1227     0.2796     0.144
A_3     C     0.3581     0.1801     0.0846
A_2     C     0.3339     0.5241     0.124
A_0     C     0.6402     0.4633     0.4958
A_3     C     0.282     0.884     0.2525
A_2     C     0.1369     0.3292     0.5771
A_3     C     0.5176     0.5636     0.6763
A_0     C     0.437     0.6468     0.3783
A_2     C     0.8216     0.5274     0.3913
A_0     C     0.8322     0.1641     0.4966
A_2     C     0.7627     0.1773     0.3435
A_3     C     0.7658     0.8692     0.1576
A_0     C     0.0459     0.6045     0.9646
A_0     C     0.0674     0.1128     0.5022
A_3     C     0.8644     0.4165     0.7021
A_0     C     0.4963     0.7493     0.4659
A_3     C     0.5812     0.1421     0.5395
A_2     C     0.6873     0.2522     0.0391
A_0     C     0.1835     0.8111     0.2606
A_2     C     0.5082     0.0988     0.7132
A_0     C     0.0248     0.2162     0.0606
A_3     C     0.4438     0.0333     0.1094
A_2     C     0.5173     0.3346     0.2268
A_2     C     0.4032     0.2575     0.4958
A_2     C     0.1395     0.7267     0.0717
A_1     C     0.0921     0.3927     0.1806
A_1     C     0.2605     0.4537     0.3357
A_3     C     0.7421     0.5005     0.4464
A_3     C     0.914     0.3268     0.5197
A_0     C     0.2411     0.5115     0.6027
A_1     C     0.5377     0.1732     0.5024
A_0     C     0.5134     0.0327     0.7704
A_2     C     0.4359     0.4461     0.1418
A_0     C     0.7099     0.0797     0.4276
A_0     C     0.8202     0.4845     0.9675
A_1     C     0.8871     0.8372     0.6896
A_3     C     0.0448     0.4213     0.8112
A_2     C     0.1374     0.9257     0.9983
A_3     C     0.0925     0.2815     0.5308
A_3     C     0.5646     0.7649     0.6433
A_0     C     0.6302     0.4236     0.6471
A_0     C     0.0164     0.3389     0.7085
A_0     C     0.221     0.6159     0.3393
A_0     C     0.1489     0.1     0.7058
A_2     C     0.0393     0.1241     0.5987
A_1     C     0.6271     0.1834     0.1336
A_1     C     0.0405     0.114     0.0523
A_1     C     0.2535     0.6141     0.7034
A_0     C     0.8536     0.1547     0.5082
A_2     C     0.3206     0.6005     0.8942
A_1     C     0.7286     0.3651     0.5285
A_0     C     0.995     0.9407     0.3101
A_3     C     0.698     0.3945     0.0287
A_0     C     0.1537     0.5737     0.5476
A_1     C     0.8757     0.0833     0.763
A_0     C     0.6094     0.5928     0.195
A_2     C     0.4864     0.1366     0.8124
A_3     C     0.0793     0.1076     0.1342
A_0     C     0.4086     0.8462     0.3753
A_3     C     0.3359     0.7673     0.4052
A_0     C     0.0238     0.6412     0.3987
A_1     C     0.4536     0.4212     0.464
A_0     C     0.9034     0.2614     0.8041
A_3     C     0.7448     0.8478     0.4265
A_1     C     0.3624     0.592     0.4321
A_3     C     0.8008     0.0032     0.792
A_3     C     0.9025     0.1079     0.639
A_2     C     0.0907     0.0105     0.6083
A_2     C     0.0425     0.8179     0.5855
A_1     C     0.9163     0.0118     0.5955
A_0     C     0.2624     0.8997     0.0877
A_0     C     0.9934     0.6758     0.8588
A_2     C     0.7984     0.111     0.9809
A_1     C     0.0458     0.4115     0.8914
A_3     C     0.9225     0.9765     0.1397
A_0     C     0.4586     0.3924     0.9106
A_2     C     0.9102     0.6373     0.346
A_0     C     0.0274     0.2497     0.7269
A_3     C     0.9022     0.2191     0.7214
A_2     C     0.7079     0.3425     0.6523
A_0     C     0.1968     0.1234     0.7494
A_3     C     0.9193     0.6596     0.8435
A_3     C     0.0112     0.8674     0.2771
A_2     C     0.6622     0.2209     0.7293
A_2     C     0.1157     0.4609     0.396
A_0     C     0.8927     0.6227     0.4149
A_1     C     0.8197     0.9957     0.1892
A_0     C     0.4341     0.8184     0.1506
A_3     C     0.8429     0.7976     0.254
A_1     C     0.1104     0.0781     0.8956
A_3     C     0.6663     0.5052     0.8534
A_1     C     0.382     0.1679     0.8184
A_2     C     0.1045     0.2641     0.8201
A_3     C     0.4627     0.4433     0.5322
A_2     C     0.7451     0.7629     0.0521
A_2     C     0.5757     0.5835     0.1306
A_3     C     0.9223     0.5173     0.7339
A_2     C     0.5376     0.223     0.16
A_1     C     0.5531     0.3889     0.6764
A_2     C     0.0423     0.7733     0.3639
A_1     C     0.8102     0.3986     0.8556
A_1     C     0.1361     0.4549     0.2272
A_3     C     0.6515     0.9862     0.2826
A_1     C     0.617     0.2426     0.2357
A_1     C     0.8349     0.8742     0.6479
A_2     C     0.2843     0.3701     0.7709
A_0     C     0.1001     0.3354     0.4737
A_1     C     0.5544     0.1512     0.3537
A_3     C     0.0565     0.1663     0.4297
A_3     C     0.7042     0.8625     0.9439
A_3     C     0.493     0.519     0.8377
A_3     C     0.2066     0.015     0.1483
A_3     C     0.5869     0.7279     0.3079
A_3     C     0.385     0.9011     0.5145
A_0     C     0.8604     0.9925     0.5179
A_2     C     0.2684     0.6158     0.7708
A_1     C     0.6925     0.311     0.9094
A_0     C     0.5946     0.367     0.5081
A_1     C     0.0451     0.4924     0.0481
A_2     C     0.5838     0.3564     0.5314
A_1     C     0.6381     0.0624     0.6152
A_0     C     0.9579     0.5258     0.2366
A_0     C     0.4621     0.8579     0.0033
A_0     C     0.3595     0.0141     0.3751
A_1     C     0.5155     0.3869     0.7888
A_1     C     0.3941     0.8954     0.5014
A_1     C     0.5948     0.2831     0.6151
A_0     C     0.9837     0.4685     0.2193
A_0     C     0.3501     0.8803     0.413
A_3     C     0.9175     0.4259     0.5428
A_1     C     0.9364     0.3839     0.9092
A_3     C     0.5202     0.4929     0.7701
A_1     C     0.5634     0.6883     0.9679
A_2     C     0.8177     0.6166     0.8921
A_2     C     0.8818     0.7839     0.273
A_3     C     0.3285     0.0515     0.7252
A_2     C     0.5079     0.2564     0.7724
A_0     C     0.3475     0.7259     0.5869
A_0     C     0.7951     0.1988     0.0849
A_2     C     0.2456     0.0934     0.6599
A_1     C     0.939     0.2337     0.484
A_1     C     0.1991     0.9326     0.5316
A_0     C     0.2219     0.3867     0.3989
A_2     C     0.8073     0.3657     0.4611
A_2     C     0.1021     0.4889     0.8093
A_1     C     0.6471     0.6315     0.3833
A_0     C     0.0792     0.7979     0.5762
A_3     C     0.5211     0.3325     0.6243
A_0     C     0.4583     0.9944     0.7545
A_1     C     0.3583     0.4301     0.7495
A_3     C     0.0855     0.6136     0.1302
A_1     C     0.5852     0.3029     0.1258
A_0     C     0.8427     0.7446     0.4121
A_0     C     0.7087     0.8629     0.4868
A_0     C     0.1679     0.0243     0.6207
A_2     C     0.4758     0.726     0.7832
A_2     C     0.6412     0.8635     0.6346
A_2     C     0.5618     0.5503     0.4108
A_0     C     0.2601     0.6115     0.1413
A_2     C     0.465     0.3664     0.1834
A_1     C     0.3525     0.4896     0.4914
A_0     C     0.7574     0.4433     0.0825
A_1     C     0.3416     0.7012     0.7973
A_3     C     0.8401     0.3128     0.4874
A_2     C     0.2299     0.1489     0.7864
A_3     C     0.0711     0.7793     0.2264
A_1     C     0.87     0.5686     0.004
A_2     C     0.0362     0.12     0.2349
A_1     C     0.2124     0.8847     0.0594
A_3     C     0.0927     0.1016     0.2159
A_0     C     0.6963     0.2864     0.3359
A_1     C     0.0185     0.1112     0.5142
A_3     C     0.9995     0.4708     0.6762
A_0     C     0.5154     0.1863     0.568
A_0     C     0.8984     0.7795     0.2242
A_2     C     0.0218     0.5266     0.6957
A_1     C     0.549     0.997     0.8677
A_3     C     0.9948     0.3578     0.4306
A_0     C     0.8215     0.5521     0.952
A_2     C     0.4266     0.2318     0.4579
A_1     C     0.1774     0.1333     0.067
A_0     C     0.8968     0.2653     0.9457
A_3     C     0.4185     0.2398     0.9181
A_1     C     0.9247     0.8954     0.1712
A_2     C     0.985     0.7205     0.5664
A_1     C     0.9601     0.8348     0.6177
A_3     C     0.3509     0.7034     0.6921
A_0     C     0.9989     0.7278     0.3534
A_2     C     0.4992     0.1009     0.4006
A_0     C     0.4889     0.4449     0.9498
A_1     C     0.3444     0.271     0.3681
A_2     C     0.8097     0.8212     0.6527
A_1     C     0.2295     0.5366     0.58
A_0     C     0.1638     0.75     0.7969
A_2     C     0.3568     0.6641     0.1131
A_2     C     0.2899     0.9148     0.7224
A_1     C     0.6188     0.7122     0.891
A_0     C     0.1062     0.262     0.2244
A_2     C     0.5093     0.238     0.1222
A_3     C     0.1206     0.2717     0.188
A_1     C     0.128     0.4088     0.1181
A_0     C     0.4975     0.0521     0.2756
A_2     C     0.7973     0.2223     0.5466
A_2     C     0.4593     0.1865     0.896
A_3     C     0.9833     0.4111     0.2555
A_0     C     0.8848     0.6757     0.7736
A_1     C     0.6041     0.8261     0.5855
A_3     C     0.2006     0.819     0.4709
A_1     C     0.5223     0.0794     0.5829
A_2     C     0.9539     0.6437     0.1808
A_1     C     0.2861     0.0689     0.028
A_0     C     0.0081     0.7322     0.5857
A_2     C     0.7409     0.7011     0.5927
A_0     C     0.2715     0.8279     0.3746
A_0     C     0.5355     0.5738     0.4196
A_2     C     0.0693     0.1543     0.0574
A_2     C     0.4695     0.6363     0.8764
A_0     C     0.9035     0.2636     0.1172
A_1     C     0.041     0.7231     0.2646
A_0     C     0.7795     0.3108     0.7384
A_3     C     0.5926     0.6545     0.9561
A_0     C     0.8675     0.0241     0.6509
A_3     C     0.9979     0.6446     0.1975
A_1     C     0.7823     0.6887     0.7705
A_3     C     0.6507     0.4867     0.3537
A_2     C     0.5428     0.401     0.9192
A_2     C     0.1782     0.1011     0.0155
A_3     C     0.9234     0.5255     0.6556
A_3     C     0.301     0.1903     0.2038
A_2     C     0.6213     0.1082     0.7864
A_1     C     0.6352     0.5346     0.507
A_3     C     0.0502     0.2722     0.4888
A_3     C     0.351     0.3556     0.1295
A_0     C     0.0343     0.4905     0.7715
A_3     C     0.0709     0.6829     0.7151
A_0     C     0.017     0.9356     0.8019
A_0     C     0.9158     0.58     0.6517
A_2     C     0.4362     0.268     0.3962
A_2     C     0.1784     0.4101     0.895
A_3     C     0.2863     0.4672     0.2955
A_1     C     0.7678     0.0003     0.4465
A_1     C     0.2769     0.5301     0.3126
A_2     C     0.4623     0.6297     0.8671
A_2     C     0.9571     0.1185     0.2271
A_2     C     0.3896     0.0051     0.8535
A_3     C     0.1609     0.3857     0.3085
A_1     C     0.3393     0.7629     0.239
A_0     C     0.2541     0.9885     0.9514
A_3     C     0.5095     0.7379     0.9196
A_2     C     0.3786     0.1133     0.5274
A_3     C     0.6432     0.1933     0.1421
A_3     C     0.8074     0.72     0.7389
A_1     C     0.9015     0.0357     0.8485
A_1     C     0.8682     0.1817     0.5479
A_0     C     0.0747     0.5587     0.7697
A_3     C     0.0865     0.7551     0.5867
A_3     C     0.2802     0.118     0.3677
A_0     C     0.7362     0.6063     0.7693
A_1     C     0.9781     0.354     0.3043
A_3     C     0.8141     0.3218     0.789
A_1     C     0.2478     0.6146     0.674
A_3     C     0.5067     0.8788     0.2222
A_0     C     0.1124     0.5569     0.2067
A_2     C     0.8332     0.4846     0.0163
A_2     C     0.3303     0.3346     0.7547
A_0     C     0.9119     0.0256     0.4009
A_3     C     0.1642     0.827     0.0048
A_1     C     0.355     0.7308     0.4633
A_1     C     0.5979     0.6335     0.9392
A_2     C     0.6292     0.7915     0.2272
A_2     C     0.9322     0.4208     0.0838
A_1     C     0.2282     0.5718     0.8472
A_2     C     0.9289     0.2053     0.4587
A_2     C     0.0053     0.8967     0.9758
A_1     C     0.2849     0.3859     0.8577
A_3     C     0.9989     0.2198     0.3966
A_3     C     0.7724     0.5472     0.0406
A_0     C     0.2962     0.2638     0.4523
A_0     C     0.2032     0.1003     0.0453
A_2     C     0.6619     0.3162     0.4775
A_3     C     0.59     0.4978     0.0909
A_3     C     0.4343     0.2409     0.2245
A_3     C     0.3385     0.7777     0.626
A_3     C     0.1847     0.5619     0.5434
A_0     C     0.351     0.1726     0.5747
A_2     C     0.9948     0.807     0.4893
A_1     C     0.3286     0.7213     0.6733
A_0     C     0.1708     0.8871     0.0521
A_3     C     0.0179     0.7205     0.9682
A_3     C     0.2464     0.6856     0.7501
A_1     C     0.1384     0.7622     0.4842
A_0     C     0.825     0.2597     0.8514
A_2     C     0.7508     0.7216     0.9889
A_3     C     0.0188     0.2454     0.5425
A_3     C     0.1007     0.8878     0.3059
A_1     C     0.8662     0.8401     0.8955
A_0     C     0.2014     0.6776     0.5211
A_3     C     0.9639     0.8329     0.0311
A_3     C     0.9832     0.3358     0.1679
A_1     C     0.4125     0.3025     0.7523
A_3     C     0.6388     0.5126     0.0277
A_2     C     0.6647     0.8899     0.1464
A_1     C     0.8412     0.0814     0.5286
A_1     C     0.2033     0.3171     0.7248
A_1     C     0.0548     0.0028     0.6351
A_0     C     0.8708     0.0972     0.4768
A_0     C     0.3595     0.3323     0.7993
A_3     C     0.1556     0.2335     0.38
A_1     C     0.0369     0.7938     0.5816
A_3     C     0.5849     0.932     0.8245
A_0     C     0.1148     0.6947     0.0073
A_3     C     0.0331     0.2589     0.8136
A_3     C     0.2788     0.724     0.5692
A_0     C     0.1046     0.5489     0.985
A_1     C     0.6238     0.3271     0.4947
A_1     C     0.2575     0.2006     0.9321
A_1     C     0.9591     0.1273     0.959
A_1     C     0.0023     0.4107     0.4096
A_0     C     0.606     0.066     0.5247
A_3     C     0.1402     0.5403     0.2028
A_3     C     0.0469     0.2924     0.3158
A_2     C     0.9611     0.4109     0.326
A_0     C     0.1327     0.7246     0.9005
A_0     C     0.3861     0.9329     0.7625
A_0     C     0.0247     0.5646     0.3331
A_2     C     0.6883     0.4538     0.4533
A_1     C     0.9701     0.7652     0.6958
A_3     C     0.6073     0.4584     0.4704
A_2     C     0.4361     0.0899     0.8573
A_0     C     0.2335     0.1576     0.8449
A_1     C     0.5229     0.979     0.4684
A_0     C     0.224     0.3945     0.8256
A_3     C     0.3381     0.672     0.9928
A_0     C     0.7031     0.067     0.5939
A_1     C     0.8745     0.0422     0.3654
A_2     C     0.4423     0.1603     0.1644
A_3     C     0.0145     0.5762     0.5802
A_0     C     0.9097     0.3712     0.6078
A_2     C     0.7203     0.8502     0.9006
A_2     C     0.4223     0.2934     0.2103
A_2     C     0.2986     0.1251     0.5231
A_1     C     0.249     0.657     0.8651
A_3     C     0.0674     0.5711     0.2452
A_3     C     0.4019     0.2722     0.2151
A_0     C     0.6581     0.6849     0.9102
A_1     C     0.3615     0.7331     0.2839
A_1     C     0.5761     0.5313     0.0739
A_1     C     0.1692     0.6712     0.3395
A_1     C     0.8507     0.1445     0.4421
A_0     C     0.3391     0.719     0.0541
A_2     C     0.6173     0.6458     0.823
A_1     C     0.9313     0.9565     0.1269
A_3     C     0.949     0.2498     0.4477
A_2     C     0.3822     0.9796     0.0039
A_0     C     0.3716     0.8661     0.1037
A_0     C     0.6502     0.478     0.4069
A_3     C     0.1596     0.2515     0.2462
A_1     C     0.8056     0.9293     0.3411
A_3     C     0.1096     0.6822     0.6789
A_2     C     0.8504     0.8023     0.38
A_1     C     0.1233     0.1266     0.0399
A_1     C     0.131     0.3771     0.0859
A_0     C     0.0901     0.1698     0.8086
A_0     C     0.0555     0.0153     0.7755
A_0     C     0.4241     0.3335     0.833
A_1     C     0.2242     0.7054     0.9055
A_2     C     0.0425     0.3924     0.5015
A_3     C     0.2471     0.0013     0.1479
A_2     C     0.6017     0.4896     0.7301
A_0     C     0.2664     0.3429     0.3134
A_0     C     0.0019     0.395     0.3159
A_2     C     0.2793     0.4488     0.203
A_3     C     0.9829     0.3214     0.1572
A_3     C     0.8653     0.6786     0.6625
A_2     C     0.8512     0.2498     0.0264
A_2     C     0.9103     0.0467     0.1231
A_2     C     0.7968     0.9322     0.1479
A_1     C     0.4865     0.4375     0.6402
A_0     C     0.4943     0.5198     0.9281
A_2     C     0.136     0.6773     0.0322
A_1     C     0.6276     0.0374     0.3857
A_2     C     0.3849     0.3044     0.9863
A_3     C     0.6778     0.3027     0.4432
A_3     C     0.6493     0.1833     0.6087
A_0     C     0.1213     0.3118     0.1882
A_3     C     0.7687     0.0074     0.6966
A_0     C     0.2572     0.8926     0.0877
A_2     C     0.6755     0.0958     0.3424
A_2     C     0.5762     0.4322     0.8307
A_3     C     0.8034     0.6068     0.4177
A_3     C     0.8494     0.5821     0.2059
A_2     C     0.783     0.3492     0.3086
A_3     C     0.5694     0.3516     0.1131
A_0     C     0.8867     0.0364     0.0539
A_0     C     0.7219     0.4577     0.9388
A_0     C     0.1914     0.8069     0.5965
A_1     C     0.7192     0.6609     0.6283
A_3     C     0.8832     0.0285     0.4152
A_1     C     0.4356     0.7575     0.8809
A_1     C     0.3787     0.573     0.2983
A_2     C     0.5812     0.3784     0.8471
A_0     C     0.1653     0.6111     0.2385
A_1     C     0.7688     0.5576     0.3883
A_2     C     0.2707     0.6029     0.3768
A_2     C     0.4356     0.2031     0.7529
A_3     C     0.8965     0.131     0.2094
A_0     C     0.0617     0.2875     0.463
A_2     C     0.6534     0.1549     0.9125
A_1     C     0.6902     0.2767     0.1515
A_1     C     0.1611     0.0042     0.6814
A_0     C     0.2761     0.5794     0.2278
A_0     C     0.5545     0.0072     0.1869
A_3     C     0.4363     0.0511     0.6907
A_1     C     0.3195     0.285     0.1188
A_0     C     0.8911     0.083     0.2238
A_2     C     0.0659     0.3302     0.1414
A_1     C     0.8499     0.6718     0.6526
A_0     C     0.006     0.2322     0.6646
A_0     C     0.8769     0.762     0.6544
A_2     C     0.4003     0.1729     0.6362
A_2     C     0.3121     0.0687     0.0572
A_3     C     0.6938     0.2447     0.3521
A_3     C     0.1307     0.6827     0.4494
A_0     C     0.0529     0.5109     0.1875
A_0     C     0.0099     0.1951     0.6616
A_2     C     0.7753     0.5594     0.3783
A_0     C     0.8823     0.0861     0.8926
A_3     C     0.7143     0.3804     0.7935
A_3     C     0.2615     0.78     0.7543
A_3     C     0.3635     0.5794     0.3936
A_1     C     0.8732     0.5118     0.986
A_3     C     0.7049     0.6852     0.1754
A_3     C     0.9284     0.5588     0.5226
A_2     C     0.8476     0.9564     0.0933
A_2     C     0.6057     0.8304     0.4924
A_3     C     0.7403     0.979     0.8419
A_2     C     0.3246     0.0362     0.6224
A_0     C     0.3347     0.508     0.8152
A_0     C     0.0281     0.0538     0.713
A_1     C     0.5801     0.2054     0.2836
A_2     C     0.1087     0.5432     0.7142
A_0     C     0.649     0.6206     0.3746
A_0     C     0.8297     0.2011     0.3896
A_3     C     0.462     0.8038     0.2942
A_2     C     0.3805     0.8734     0.8012
A_0     C     0.8224     0.6924     0.0065
A_2     C     0.3902     0.3647     0.5434
A_3     C     0.0881     0.2503     0.136
A_1     C     0.8123     0.326     0.2979
A_3     C     0.4612     0.1978     0.3037
A_0     C     0.7626     0.0945     0.083
A_1     C     0.4485     0.521     0.3556
A_2     C     0.2558     0.203     0.8223
A_2     C     0.1546     0.8632     0.4865
A_2     C     0.3348     0.5183     0.2178
A_3     C     0.7338     0.2078     0.0434
A_1     C     0.45     0.3371     0.2801
A_2     C     0.7964     0.3691     0.2661
A_0     C     0.8154     0.6199     0.67
A_1     C     0.9368     0.3634     0.2948
A_1     C     0.2725     0.3076     0.3051
A_1     C     0.4555     0.9052     0.9221
A_0     C     0.405     0.2461     0.453
A_2     C     0.5432     0.6378     0.11
A_0     C     0.5629     0.5054     0.8312
A_3     C     0.8165     0.1347     0.2839
A_2     C     0.2095     0.1833     0.6515
A_0     C     0.4559     0.0608     0.3797
A_0     C     0.0166     0.9181     0.2641
A_0     C     0.6773     0.439     0.269
A_0     C     0.1963     0.8671     0.2237
A_0     C     0.2587     0.7923     0.8263
A_0     C     0.0908     0.387     0.5811
A_0     C     0.5681     0.4368     0.4518
A_1     C     0.4674     0.7518     0.2125
A_3     C     0.5634     0.1042     0.9231
A_3     C     0.3649     0.827     0.2291
A_3     C     0.5613     0.2224     0.7722
A_0     C     0.3122     0.8951     0.0519
A_0     C     0.1234     0.2867     0.6806
A_0     C     0.6421     0.8474     0.8743
A_3     C     0.5795     0.8616     0.2743
A_1     C     0.2186     0.5757     0.4418
A_3     C     0.6812     0.8101     0.8785
A_1     C     0.9497     0.8228     0.9223
A_3     C     0.1347     0.1925     0.8088
A_0     C     0.011     0.6214     0.3378
A_3     C     0.2124     0.39     0.8398
A_0     C     0.2803     0.6111     0.6221
A_2     C     0.5314     0.6993     0.7519
A_0     C     0.7017     0.8626     0.0952
A_0     C     0.5947     0.8186     0.7043
A_3     C     0.5897     0.5752     0.4777
A_2     C     0.0968     0.6736     0.7403
A_3     C     0.4706     0.8552     0.9755
A_2     C     0.5198     0.4859     0.6583
A_0     C     0.1471     0.2695     0.1407
A_2     C     0.5981     0.2568     0.8161
A_1     C     0.2456     0.8717     0.6081
A_0     C     0.8548     0.9809     0.4247
A_3     C     0.8631     0.8702     0.4604
A_3     C     0.7486     0.8896     0.2489
A_3     C     0.0553     0.3876     0.1992
A_0     C     0.3413     0.917     0.5334
A_2     C     0.4948     0.5243     0.8524
A_3     C     0.6536     0.0457     0.411
A_2     C     0.7521     0.1309     0.2308
A_3     C     0.7762     0.0313     0.5015
A_1     C     0.9491     0.751     0.919
A_0     C     0.4106     0.0572     0.3901
A_3     C     0.4802     0.231     0.1549
A_1     C     0.1564     0.4698     0.6035
A_2     C     0.6787     0.6838     0.096
A_2     C     0.7347     0.737     0.5525
A_2     C     0.6612     0.3515     0.2408
A_0     C     0.633     0.1051     0.9725
A_3     C     0.2505     0.4864     0.3061
A_1     C     0.3411     0.2099     0.8466
A_0     C     0.7407     0.8808     0.8371
A_2     C     0.9866     0.6476     0.3749
A_1     C     0.8402     0.6699     0.661
A_3     C     0.3355     0.7848     0.3394
A_3     C     0.616     0.9846     0.9554
A_2     C     0.5748     0.8873     0.7172
A_0     C     0.3254     0.2464     0.9248
A_2     C     0.6985     0.0877     0.0082
A_2     C     0.1421     0.4808     0.6614
A_1     C     0.1997     0.7697     0.177
A_0     C     0.9236     0.4101     0.0216
A_1     C     0.61     0.1822     0.9534
A_3     C     0.622     0.8959     0.2753
A_1     C     0.5428     0.5129     0.906
A_0     C     0.0861     0.294     0.1324
A_1     C     0.5898     0.2527     0.8103
A_1     C     0.6318     0.8146     0.4184
A_3     C     0.4431     0.4008     0.8638
A_1     C     0.2925     0.377     0.3371
A_1     C     0.4532     0.6504     0.9527
A_1     C     0.5613     0.0989     0.8751
A_1     C     0.1237     0.3931     0.4603
A_3     C     0.7842     0.1753     0.9303
A_3     C     0.4409     0.3693     0.2619
A_0     C     0.6304     0.0655     0.3631
A_1     C     0.2981     0.4513     0.9777
A_1     C     0.4162     0.9864     0.8008
A_3     C     0.9557     0.1303     0.4495
A_1     C     0.279     0.8917     0.9814
A_1     C     0.5059     0.8944     0.686
A_3     C     0.8888     0.4803     0.2772
A_2     C     0.7324     0.5791     0.097
A_3     C     0.9506     0.4018     0.5192
A_0     C     0.766     0.3754     0.0669
A_1     C     0.3064     0.5     0.6378
A_2     C     0.8632     0.1301     0.2234
A_2     C     0.0379     0.6376     0.4447
A_2     C     0.7939     0.0686     0.7756
A_3     C     0.7181     0.3315     0.2561
A_2     C     0.7158     0.2867     0.3477
A_0     C     0.3038     0.0455     0.0681
A_2     C     0.0443     0.2872     0.971
A_0     C     0.8808     0.3772     0.8491
A_0     C     0.7542     0.4136     0.5553
A_3     C     0.7024     0.2117     0.0245
A_2     C     0.2559     0.8839     0.3394
A_1     C     0.3904     0.0132     0.9018
A_1     C     0.456     0.2281     0.3675
A_1     C     0.1613     0.9954     0.1501
A_1     C     0.2792     0.0136     0.2142
A_3     C     0.8797     0.0184     0.283
A_2     C     0.6995     0.6031     0.3411
A_0     C     0.3725     0.0385     0.1019
A_2     C     0.424     0.3295     0.7887
A_1     C     0.8596     0.914     0.8286
A_0     C     0.8394     0.4447     0.9686
A_1     C     0.9847     0.1424     0.2748
A_0     C     0.3247     0.7956     0.8056
A_2     C     0.5656     0.3008     0.9318
A_2     C     0.3373     0.3199     0.4666
A_1     C     0.2663     0.9057     0.274
A_2     C     0.2601     0.2809     0.5147
A_3     C     0.9656     0.5081     0.9942
A_0     C     0.7994     0.1536     0.5609
A_0     C     0.8768     0.3114     0.8765
A_3     C     0.3058     0.0094     0.8949
A_0     C     0.0067     0.099     0.2296
A_0     C     0.572     0.0245     0.6644
A_1     C     0.2734     0.1129     0.9969
A_1     C     0.6368     0.1288     0.3637
A_0     C     0.6362     0.4248     0.1061
A_2     C     0.546     0.2995     0.6751
A_2     C     0.9387     0.6029     0.1878
A_3     C     0.6776     0.1663     0.5183
A_0     C     0.4594     0.2248     0.951
A_2     C     0.9903     0.3265     0.8414
A_3     C     0.8951     0.2465     0.7309
A_2     C     0.2451     0.4805     0.5639
A_2     C     0.9589     0.939     0.0734
A_3     C     0.3092     0.9448     0.0065
A_2     C     0.0925     0.6137     0.1446
A_1     C     0.0163     0.1889     0.6854
A_3     C     0.1481     0.4935     0.8719
A_2     C     0.3191     0.4682     0.8847
A_1     C     0.6632     0.7647     0.9622
A_3     C     0.6831     0.2137     0.5899
A_0     C     0.7267     0.6602     0.7856
A_3     C     0.3067     0.5301     0.9302
A_3     C     0.6346     0.2555     0.9943
A_1     C     0.966     0.4175     0.0869
A_1     C     0.8662     0.2539     0.5763
A_2     C     0.6037     0.4145     0.5851
A_2     C     0.6727     0.4477     0.659
A_1     C     0.4564     0.7211     0.5383
A_1     C     0.2626     0.817     0.4953
A_2     C     0.0172     0.9269     0.7903
A_2     C     0.496     0.3905     0.6819
A_0     C     0.1431     0.5437     0.7029
A_2     C     0.393     0.6683     0.7425
A_1     C     0.826     0.9318     0.7492
A_2     C     0.1689     0.109     0.5123
A_2     C     0.6299     0.5792     0.1722
A_1     C     0.3689     0.232     0.82
A_1     C     0.673     0.8663     0.0657
A_3     C     0.2352     0.081     0.3041
A_1     C     0.5228     0.9288     0.9192
A_2     C     0.0617     0.591     0.7819
A_3     C     0.3923     0.0466     0.5346
A_1     C     0.3556     0.1435     0.2051
A_2     C     0.6039     0.5567     0.5526
A_0     C     0.7184     0.3435     0.4688
A_0     C     0.4885     0.9535     0.1932
A_1     C     0.728     0.4354     0.3218
A_2     C     0.6581     0.3948     0.5843
A_1     C     0.85     0.6939     0.3547
A_3     C     0.0184     0.3109     0.8637
A_2     C     0.5125     0.2482     0.5342
A_0     C     0.0255     0.2377     0.6493
A_2     C     0.9811     0.5619     0.2049
A_1     C     0.0063     0.0517     0.6881
A_0     C     0.0687     0.5863     0.8457
A_2     C     0.764     0.8542     0.439
A_3     C     0.8903     0.3183     0.8396
A_3     C     0.029     0.1988     0.6667
A_3     C     0.2986     0.6547     0.6999
A_2     C     0.3027     0.7513     0.3062
A_3     C     0.3842     0.1543     0.2148
A_3     C     0.5834     0.7859     0.9591
A_2     C     0.4974     0.5853     0.5248
A_0     C     0.5134     0.9943     0.1446
A_2     C     0.2827     0.6727     0.9476
A_2     C     0.7238     0.5968     0.9406
A_3     C     0.8469     0.447     0.6607
A_0     C     0.6177     0.1442     0.9992
A_0     C     0.8776     0.3831     0.6516
A_1     C     0.9074     0.2778     0.4352
A_2     C     0.2477     0.9154     0.6725
A_1     C     0.0255     0.0254     0.2025
A_1     C     0.3225     0.8458     0.1776
A_1     C     0.3146     0.8114     0.5863
A_1     C     0.1225     0.1035     0.3908
A_1     C     0.2947     0.8167     0.4763
A_3     C     0.0401     0.8363     0.1148
A_2     C     0.4656     0.9613     0.0311
A_2     C     0.6779     0.9712     0.5019
A_0     C     0.4329     0.8685     0.602
A_1     C     0.2557     0.2562     0.263
A_1     C     0.8605     0.9043     0.1781
A_0     C     0.8815     0.161     0.3533
A_0     C     0.62     0.8684     0.4693
A_1     C     0.0489     0.0578     0.307
A_1     C     0.1324     0.5765     0.5643
A_1     C     0.072     0.3039     0.6261
A_0     C     0.6482     0.1608     0.9859
A_0     C     0.2386     0.6315     0.6652
A_1     C     0.2461     0.382     0.4252
A_3     C     0.7229     0.3861     0.7233
A_2     C     0.0962     0.9588     0.5147
A_3     C     0.2508     0.5488     0.0757
A_1     C     0.2129     0.1624     0.4243
A_2     C     0.5734     0.9954     0.5098
A_3     C     0.5174     0.1596     0.0087
A_0     C     0.4029     0.1549     0.9136
A_0     C     0.3859     0.3518     0.2342
A_2     C     0.8366     0.0584     0.3109
A_3     C     0.9017     0.9698     0.9837
A_2     C     0.6499     0.8993     0.8387
A_2     C     0.7271     0.2634     0.9756
A_2     C     0.3433     0.3879     0.4008
A_2     C     0.867     0.252     0.5437
A_0     C     0.222     0.5165     0.5079
A_1     C     0.1888     0.9149     0.7611
A_3     C     0.4189     0.6932     0.2146
A_0     C     0.8296     0.0923     0.1514
A_0     C     0.214     0.3678     0.3965
A_3     C     0.1407     0.3512     0.3156
A_3     C     0.0057     0.2087     0.4608
A_2     C     0.7659     0.8913     0.2354
A_0     C     0.1322     0.0589     0.2166
A_3     C     0.871     0.0131     0.8901
A_2     C     0.3013     0.1229     0.67
A_1     C     0.9913     0.3329     0.9093
A_0     C     0.4262     0.3225     0.3088
A_0     C     0.1998     0.8401     0.4735
A_3     C     0.5106     0.5436     0.6462
A_1     C     0.1586     0.3732     0.0916
A_3     C     0.7046     0.287     0.2094
A_1     C     0.0828     0.4456     0.1646
A_2     C     0.352     0.8166     0.2149
A_3     C     0.413     0.7619     0.962
A_0     C     0.003     0.7598     0.0202
A_3     C     0.2217     0.8831     0.2993
A_1     C     0.5915     0.866     0.1712
A_0     C     0.4991     0.3741     0.2058
A_3     C     0.8689     0.9288     0.5251
A_0     C     0.2715     0.688     0.6232
A_0     C     0.665     0.7362     0.5504
A_0     C     0.7796     0.6319     0.5436
A_3     C     0.6449     0.2407     0.8595
A_2     C     0.1753     0.3132     0.0994
A_1     C     0.0325     0.92     0.8472
A_3     C     0.7411     0.9108     0.4485
A_3     C     0.4275     0.1636     0.2295
A_1     C     0.1584     0.6629     0.7208
A_2     C     0.6353     0.1038     0.6704
A_1     C     0.917     0.3069     0.2909
A_3     C     0.0204     0.4442     0.9423
A_3     C     0.7774     0.0743     0.7777
A_1     C     0.5972     0.8374     0.335
A_1     C     0.4138     0.5912     0.4271
A_3     C     0.4561     0.1708     0.0722
A_0     C     0.5952     0.9094     0.9704
A_1     C     0.0927     0.5946     0.554
A_1     C     0.9716     0.3558     0.6597
A_0     C     0.0933     0.8708     0.5203
A_1     C     0.289     0.6051     0.4933
A_3     C     0.6521     0.2079     0.2917
A_0     C     0.8847     0.9049     0.741
A_0     C     0.6369     0.5352     0.5142
A_2     C     0.3823     0.4213     0.1705
A_1     C     0.7121     0.6445     0.2323
A_0     C     0.7778     0.7906     0.7601
A_2     C     0.0697     0.1743     0.8581
A_1     C     0.5006     0.6251     0.5529
A_3     C     0.3247     0.428     0.2012
A_0     C     0.9931     0.9967     0.9196
A_1     C     0.9734     0.3941     0.6987
A_1     C     0.31     0.375     0.3813
A_2     C     0.2344     0.1928     0.5854
A_3     C     0.6249     0.0419     0.095
A_3     C     0.5017     0.1456     0.8472
A_0     C     0.3041     0.6559     0.1762
A_1     C     0.958     0.3463     0.7281
A_0     C     0.5457     0.4743     0.6102
A_3     C     0.7075     0.0279     0.4617
A_0     C     0.191     0.4836     0.3095
A_3     C     0.1478     0.8891     0.0401
A_1     C     0.9116     0.9341     0.7404
A_1     C     0.6569     0.5175     0.7193
A_2     C     0.5264     0.38     0.4525
A_1     C     0.2901     0.1398     0.7054
A_1     C     0.2619     0.5069     0.5627
A_2     C     0.7662     0.8007     0.7991
A_3     C     0.9366     0.1443     0.2419
A_1     C     0.5233     0.7368     0.1999
A_1     C     0.4449     0.75     0.6613
A_3     C     0.0562     0.284     0.9581
A_1     C     0.0905     0.1531     0.6546
A_0     C     0.4412     0.4027     0.9376
A_1     C     0.5835     0.9481     0.389
A_3     C     0.3657     0.9489     0.57
A_1     C     0.6481     0.1855     0.0351
A_3     C     0.8768     0.019     0.7631
A_0     C     0.0127     0.7188     0.1839
A_2     C     0.4548     0.7196     0.1203
A_1     C     0.5835     0.2483     0.6345
A_3     C     0.2163     0.0684     0.6135
A_2     C     0.4722     0.0541     0.0553
A_3     C     0.6408     0.0368     0.689
A_2     C     0.0678     0.0483     0.9298
A_3     C     0.0563     0.4768     0.1846
A_1     C     0.36     0.6797     0.4395
A_1     C     0.9118     0.8987     0.269
A_1     C     0.1369     0.1841     0.3513
A_2     C     0.4986     0.5929     0.9838
A_3     C     0.3657     0.5782     0.8855
A_2     C     0.2441     0.8684     0.9939
A_0     C     0.1735     0.2278     0.1534
A_1     C     0.5586     0.2639     0.7161
A_3     C     0.5339     0.8017     0.5633
A_3     C     0.8817     0.7748     0.5608
A_0     C     0.4644     0.0276     0.5014
A_3     C     0.253     0.1088     0.2522
A_3     C     0.6801     0.1693     0.4308
A_1     C     0.0881     0.778     0.2962
A_1     C     0.8952     0.1314     0.5212
A_2     C     0.36     0.8006     0.0518
A_3     C     0.104     0.8809     0.4029
A_0     C     0.3785     0.2441     0.2813
A_0     C     0.0757     0.2275     0.4929
A_0     C     0.6594     0.3466     0.9679
A_1     C     0.9625     0.1752     0.8849
A_2     C     0.9154     0.7871     0.6391
A_0     C     0.3728     0.5591     0.6634
A_0     C     0.4683     0.9614     0.5215
A_3     C     0.9973     0.5679     0.4496
A_2     C     0.4371     0.1115     0.732
A_0     C     0.942     0.9795     0.7256
A_3     C     0.3142     0.6202     0.0571
A_3     C     0.2739     0.2644     0.5741
A_3     C     0.2405     0.8064     0.7207
A_2     C     0.5316     0.8724     0.279
A_0     C     0.7679     0.6116     0.9649
A_0     C     0.2417     0.8142     0.17
A_2     C     0.9692     0.8819     0.1171
A_2     C     0.9005     0.2516     0.3077
A_1     C     0.1862     0.7519     0.2233
A_2     C     0.44     0.7847     0.5315
A_3     C     0.2875     0.5922     0.9774
A_1     C     0.8453     0.1182     0.126
A_1     C     0.1376     0.8501     0.7069
A_2     C     0.5138     0.6174     0.1801
A_3     C     0.4421     0.3179     0.9411
A_1     C     0.7297     0.6322     0.813
A_2     C     0.16     0.3474     0.829
A_2     C     0.9941     0.2453     0.1132
A_3     C     0.9917     0.3274     0.3646
A_1     C     0.7764     0.0819     0.164
A_2     C     0.5657     0.8915     0.6953
A_3     C     0.608     0.574     0.7744
A_0     C     0.3453     0.2853     0.4733
A_1     C     0.5897     0.6792     0.4449
A_2     C     0.0775     0.3717     0.1948
A_2     C     0.7194     0.9983     0.8792
A_1     C     0.3545     0.2946     0.9022
A_0     C     0.8268     0.9201     0.7641
A_3     C     0.7871     0.061     0.6398
A_2     C     0.8588     0.218     0.2385
A_0     C     0.6643     0.9871     0.743
A_3     C     0.8766     0.7355     0.3386
A_3     C     0.2925     0.6277     0.3274
A_3     C     0.5867     0.9471     0.5898
A_3     C     0.6227     0.743     0.3725
A_0     C     0.3207     0.9986     0.3191
A_2     C     0.0675     0.5264     0.6425
A_0     C     0.5408     0.0152     0.9564
A_0     C     0.6775     0.1574     0.3867
A_2     C     0.1648     0.9239     0.9012
A_0     C     0.9362     0.5711     0.2369
A_0     C     0.0766     0.0877     0.7049
A_2     C     0.4892     0.6822     0.1353
A_2     C     0.0341     0.3207     0.8502
A_3     C     0.8087     0.6146     0.0267
A_2     C     0.0566     0.7253     0.3034
A_2     C     0.5652     0.7992     0.6724
A_2     C     0.4485     0.3608     0.8733
A_2     C     0.3494     0.0937     0.1963
A_2     C     0.5316     0.2488     0.451
A_2     C     0.258     0.3199     0.4879
A_3     C     0.4556     0.907     0.6264
A_2     C     0.1056     0.6469     0.9566
A_2     C     0.0362     0.7458     0.6114
A_3     C     0.7092     0.462     0.2376
A_1     C     0.2405     0.9102     0.8254
A_3     C     0.1573     0.7235     0.4298
A_1     C     0.384     0.2191     0.0456
A_1     C     0.1584     0.6159     0.677
A_2     C     0.9951     0.2641     0.3361
A_3     C     0.2895     0.7943     0.9287
A_3     C     0.9964     0.2914     0.0294
A_1     C     0.1684     0.588     0.9037
A_2     C     0.6167     0.3821     0.2958
A_1     C     0.8654     0.3979     0.736
A_1     C     0.0709     0.41     0.0355
A_1     C     0.5666     0.1888     0.1599
A_1     C     0.0057     0.0711     0.8618
A_0     C     0.3231     0.9494     0.6388
A_1     C     0.1555     0.0229     0.0356
A_1     C     0.9237     0.3188     0.7321
A_2     C     0.2322     0.1805     0.5231
A_0     C     0.9501     0.4909     0.4269
A_3     C     0.8034     0.6349     0.1624
A_3     C     0.5337     0.9954     0.7966
A_2     C     0.0196     0.131     0.2014
A_1     C     0.6869     0.6962     0.4471
A_3     C     0.6233     0.561     0.8519
A_3     C     0.0571     0.5147     0.2518
A_1     C     0.9778     0.8974     0.0442
A_2     C     0.2922     0.5408     0.1386
A_3     C     0.1523     0.9894     0.8944
A_0     C     0.5057     0.3977     0.0592
A_0     C     0.8709     0.2727     0.6912
A_3     C     0.2666     0.4064     0.8018
A_2     C     0.9691     0.0719     0.863
A_1     C     0.1983     0.2161     0.3481
A_2     C     0.4264     0.9266     0.5974
A_1     C     0.4732     0.21     0.9983
A_3     C     0.8009     0.8302     0.3862
A_0     C     0.6806     0.1194     0.7997
A_0     C     0.2677     0.9684     0.4358
A_1     C     0.8019     0.1141     0.3902
A_3     C     0.1507     0.3862     0.9585
A_0     C     0.273     0.206     0.685
A_3     C     0.3162     0.4725     0.5727
A_0     C     0.5626     0.4411     0.7457
A_2     C     0.7731     0.3928     0.2183
A_1     C     0.3687     0.3696     0.1632
A_0     C     0.6477     0.1311     0.0908
A_0     C     0.8994     0.8549     0.382
A_2     C     0.091     0.1979     0.2144
A_2     C     0.3261     0.6783     0.3702
A_0     C     0.7602     0.7647     0.5386
A_2     C     0.1674     0.2883     0.0809
A_1     C     0.0069     0.9934     0.6038
A_0     C     0.9999     0.5188     0.6063
A_1     C     0.7776     0.4402     0.2075
A_3     C     0.101     0.1147     0.8321
A_0     C     0.5702     0.6763     0.5076
A_1     C     0.3994     0.4856     0.7285
A_2     C     0.4965     0.7994     0.9969
A_2     C     0.5196     0.7539     0.1842
A_2     C     0.4538     0.4493     0.3311
A_2     C     0.3075     0.1034     0.1092
A_0     C     0.8505     0.6395     0.2047
A_3     C     0.6525     0.7704     0.8567
A_0     C     0.476     0.9062     0.483
A_2     C     0.1358     0.5289     0.1857
A_0     C     0.235     0.3443     0.3009
A_3     C     0.9662     0.0141     0.6192
A_2     C     0.102     0.8254     0.0557
A_2     C     0.8944     0.8233     0.8389
A_3     C     0.9732     0.8309     0.3565
A_2     C     0.5367     0.1234     0.1784
A_2     C     0.0862     0.638     0.8573
A_0     C     0.6163     0.661     0.5264
A_1     C     0.807     0.4293     0.9529
A_0     C     0.7369     0.8213     0.07
A_0     C     0.7698     0.6131     0.7359
A_2     C     0.5281     0.821     0.6176
A_3     C     0.6152     0.613     0.2078
A_2     C     0.7066     0.0023     0.0082
A_3     C     0.2201     0.9626     0.4394
A_0     C     0.5166     0.785     0.4971
A_2     C     0.6307     0.0278     0.1746
A_0     C     0.4603     0.681     0.5544
A_1     C     0.8369     0.6124     0.0863
A_2     C     0.2473     0.5828     0.2338
A_0     C     0.9583     0.6992     0.0403
A_1     C     0.3495     0.6181     0.8249
A_0     C     0.0845     0.4179     0.0022
A_2     C     0.7343     0.2909     0.2152
A_2     C     0.2293     0.4318     0.3382
A_0     C     0.8528     0.2577     0.8038
A_0     C     0.2619     0.6041     0.9472
A_1     C     0.1408     0.493     0.9796
A_0     C     0.0953     0.9627     0.664
A_0     C     0.5211     0.1528     0.7645
A_3     C     0.4305     0.6127     0.9701
A_1     C     0.424     0.7331     0.6466
A_0     C     0.3402     0.9856     0.5938
A_2     C     0.978     0.6175     0.6997
A_2     C     0.2957     0.7628     0.1043
A_1     C     0.8665     0.3296     0.1648
A_0     C     0.2139     0.2542     0.0245
A_3     C     0.6391     0.5573     0.0619
A_2     C     0.9066     0.839     0.0167
A_2     C     0.7193     0.3854     0.2455
A_0     C     0.8265     0.9419     0.1135
A_1     C     0.1175     0.4695     0.9751
A_2     C     0.5191     0.4932     0.7288
A_3     C     0.1108     0.7115     0.69
A_0     C     0.3121     0.4183     0.7533
A_2     C     0.892     0.9904     0.4401
A_0     C     0.0683     0.8833     0.9091
A_1     C     0.493     0.2055     0.1949
A_0     C     0.5009     0.215     0.68
A_3     C     0.7456     0.0583     0.6628
A_2     C     0.759     0.0628     0.5674
A_1     C     0.2804     0.9411     0.6397
A_3     C     0.2737     0.7186     0.8736
A_3     C     0.0576     0.7842     0.8208
A_3     C     0.3764     0.8577     0.9736
A_1     C     0.6842     0.7463     0.3415
A_2     C     0.2397     0.8962     0.4085
A_3     C     0.9547     0.3558     0.0718
A_1     C     0.4488     0.102     0.9538
A_1     C     0.8323     0.8514     0.7497
A_3     C     0.3115     0.2014     0.2958
A_3     C     0.4922     0.6049     0.8858
A_0     C     0.9514     0.209     0.0927
A_2     C     0.3259     0.6083     0.7966
A_1     C     0.7779     0.5735     0.1562
A_1     C     0.4192     0.9253     0.1454
A_2     C     0.9105     0.2755     0.395
A_3     C     0.2338     0.8939     0.2849
A_2     C     0.1122     0.9017     0.961
A_0     C     0.0144     0.7948     0.0359
A_0     C     0.2869     0.7056     0.922
A_3     C     0.9076     0.011     0.4167
A_1     C     0.9045     0.8205     0.2082
A_1     C     0.2394     0.8994     0.1262
A_3     C     0.7919     0.2008     0.99
A_0     C     0.3744     0.7005     0.9645
A_3     C     0.4     0.5121     0.0998
A_2     C     0.0312     0.2247     0.3302
A_1     C     0.4397     0.3922     0.498
A_0     C     0.6316     0.6928     0.703
A_1     C     0.8415     0.1388     0.2808
A_0     C     0.2303     0.6196     0.6834
A_2     C     0.1101     0.8142     0.9049
A_2     C     0.0961     0.1202     0.259
A_0     C     0.8009     0.1635     0.7638
A_3     C     0.1513     0.5216     0.1669
A_2     C     0.9863     0.0225     0.1712
A_0     C     0.4125     0.0343     0.1517
A_1     C     0.9309     0.3756     0.6044
A_2     C     0.1833     0.5184     0.9756
A_2     C     0.1746     0.4963     0.3155
A_2     C     0.8766     0.1585     0.6888
A_2     C     0.9767     0.4343     0.2418
A_0     C     0.8486     0.79     0.6349
A_1     C     0.3541     0.5206     0.7262
A_2     C     0.185     0.844     0.9385
A_2     C     0.5134     0.6214     0.7118
A_3     C     0.2235     0.2335     0.7931
A_1     C     0.5526     0.3316     0.1684
A_3     C     0.7478     0.3145     0.656
A_1     C     0.687     0.1427     0.1408
A_2     C     0.426     0.0295     0.5535
A_0     C     0.6853     0.7554     0.5786
A_1     C     0.2658     0.877     0.9081
A_2     C     0.1175     0.3602     0.5722
A_3     C     0.6923     0.4972     0.357
A_3     C     0.2714     0.3577     0.6058
A_1     C     0.3443     0.3307     0.1227
A_1     C     0.0641     0.2864     0.2199
A_3     C     0.3687     0.2126     0.4431
A_3     C     0.7571     0.3646     0.4286
A_1     C     0.3544     0.9947     0.3132
A_1     C     0.0928     0.1866     0.8616
A_2     C     0.9126     0.1701     0.9761
A_2     C     0.6123     0.1246     0.4343
A_3     C     0.7598     0.6356     0.9333
A_3     C     0.5947     0.9307     0.8385
A_1     C     0.09     0.4781     0.6181
A_1     C     0.6689     0.7285     0.8135
A_0     C     0.8836     0.1793     0.4615
A_1     C     0.0311     0.9263     0.6367
A_2     C     0.5221     0.6906     0.0412
A_3     C     0.0727     0.1791     0.7288
A_2     C     0.9444     0.3094     0.9694
A_2     C     0.2749     0.2159     0.3576
A_0     C     0.3053     0.9993     0.2406
A_0     C     0.3067     0.0175     0.8256
A_1     C     0.8708     0.8658     0.503
A_3     C     0.2328     0.6737     0.6487
A_2     C     0.2597     0.3541     0.3246
A_3     C     0.1569     0.5091     0.0374
A_3     C     0.2051     0.9083     0.4954
A_3     C     0.3435     0.7913     0.2191
A_3     C     0.8089     0.2133     0.1945
A_3     C     0.8997     0.7966     0.0072
A_0     C     0.19     0.494     0.7329
A_3     C     0.9267     0.7151     0.6345
A_0     C     0.9077     0.3507     0.0575
A_1     C     0.4142     0.7305     0.785
A_1     C     0.2347     0.5458     0.374
A_1     C     0.7357     0.6988     0.3071
A_0     C     0.6945     0.4912     0.1157
A_1     C     0.2272     0.4688     0.0907
A_2     C     0.1098     0.3882     0.301
A_1     C     0.2576     0.8986     0.5984
A_2     C     0.4407     0.3838     0.7996
A_2     C     0.552     0.4457     0.4323
A_0     C     0.4219     0.4484     0.4096
A_0     C     0.0627     0.899     0.8811
A_0     C     0.9722     0.6921     0.9367
A_2     C     0.7575     0.7023     0.9593
A_1     C     0.6878     0.3158     0.1708
A_1     C     0.9507     0.1287     0.2427
A_0     C     0.6891     0.4004     0.644
A_0     C     0.0863     0.9531     0.3984
A_3     C     0.4135     0.6402     0.0694
A_3     C     0.5768     0.027     0.1566
A_1     C     0.2103     0.5387     0.8904
A_2     C     0.6149     0.4382     0.9103
A_1     C     0.8333     0.1803     0.6746
A_2     C     0.9093     0.0521     0.334
A_0     C     0.1666     0.1971     0.3933
A_2     C     0.2542     0.394     0.896
A_3     C     0.6137     0.8993     0.2642
A_2     C     0.9088     0.6555     0.556
A_2     C     0.1354     0.8802     0.241
A_3     C     0.9308     0.2377     0.3961
A_0     C     0.2211     0.4061     0.7175
A_2     C     0.3307     0.1711     0.8724
A_2     C     0.5696     0.4107     0.9756
A_2     C     0.1711     0.7013     0.9565
A_3     C     0.5277     0.4519     0.7167
A_2     C     0.039     0.2654     0.6849
A_2     C     0.2983     0.6163     0.5652
A_0     C     0.0186     0.277     0.1594
A_1     C     0.8731     0.5787     0.7846
A_3     C     0.6763     0.255     0.285
A_3     C     0.4525     0.1893     0.3702
A_1     C     0.2249     0.6772     0.9996
A_1     C     0.1305     0.8272     0.1787
A_2     C     0.9041     0.5163     0.9589
A_2     C     0.7891     0.7338     0.375
A_3     C     0.2876     0.9914     0.9831
A_1     C     0.2025     0.8274     0.1697
A_3     C     0.1589     0.9752     0.4608
A_1     C     0.9486     0.9156     0.5685
A_0     C     0.6716     0.923     0.6112
A_3     C     0.1958     0.124     0.886
A_1     C     0.4735     0.2849     0.0956
A_0     C     0.9703     0.9488     0.177
A_2     C     0.5265     0.1305     0.8882
A_0     C     0.599     0.7763     0.4939
A_1     C     0.8654     0.1873     0.0413
A_2     C     0.7297     0.4324     0.933
A_1     C     0.9474     0.7233     0.8322
A_2     C     0.9112     0.7566     0.9274
A_0     C     0.2688     0.8587     0.4857
A_3     C     0.4966     0.0873     0.9787
A_3     C     0.6526     0.8554     0.9078
A_1     C     0.6827     0.5671     0.543
A_1     C     0.0327     0.7126     0.2552
A_1     C     0.0571     0.6942     0.1175
A_3     C     0.2356     0.2767     0.581
A_1     C     0.1574     0.7023     0.279
A_3     C     0.7291     0.6204     0.6131
A_0     C     0.4362     0.0422     0.3699
A_0     C     0.9184     0.7222     0.9512
A_1     C     0.9363     0.1603     0.2035
A_3     C     0.0207     0.2235     0.0107
A_2     C     0.8019     0.8337     0.1842
A_0     C     0.6204     0.4107     0.7812
A_1     C     0.3243     0.6733     0.7591
A_1     C     0.8474     0.2633     0.2638
A_2     C     0.4624     0.7552     0.6894
A_3     C     0.1716     0.8892     0.9325
A_0     C     0.3998     0.6546     0.9488
A_1     C     0.3764     0.7788     0.8629
A_3     C     0.102     0.8026     0.4583
A_3     C     0.7787     0.253     0.8749
A_0     C     0.2841     0.6706     0.846
A_1     C     0.3225     0.9892     0.0115
A_0     C     0.6563     0.7262     0.1845
A_3     C     0.7499     0.6195     0.6571
A_0     C     0.2141     0.3513     0.2438
A_3     C     0.7363     0.2061     0.785
A_1     C     0.0057     0.8363     0.9368
A_0     C     0.8824     0.5847     0.068
A_2     C     0.9259     0.5937     0.2031
A_0     C     0.5762     0.1347     0.2741
A_0     C     0.8939     0.6376     0.7194
A_2     C     0.3595     0.7709     0.3585
A_0     C     0.3307     0.3121     0.5339
A_2     C     0.5091     0.8445     0.4431
A_0     C     0.6188     0.9127     0.8323
A_2     C     0.7063     0.6344     0.7191
A_2     C     0.0152     0.9699     0.6322
A_1     C     0.1207     0.8722     0.3862
A_0     C     0.2043     0.7387     0.5661
A_0     C     0.6115     0.6012     0.9689
A_2     C     0.4558     0.0156     0.9622
A_1     C     0.3494     0.3366     0.0653
A_0     C     0.0421     0.7079     0.2768
A_1     C     0.4519     0.5452     0.215
A_0     C     0.8286     0.5193     0.4687
A_2     C     0.8792     0.093     0.7724
A_3     C     0.906     0.6904     0.1019
A_1     C     0.0846     0.9363     0.5388
A_1     C     0.7045     0.8258     0.5793
A_3     C     0.9088     0.6374     0.0278
A_1     C     0.5056     0.4696     0.1053
A_0     C     0.7964     0.8424     0.9708
A_3     C     0.1918     0.0588     0.8285
A_1     C     0.3193     0.7686     0.2043
A_3     C     0.0254     0.2933     0.6985
A_2     C     0.135     0.876     0.8378
A_3     C     0.4461     0.3507     0.6331
A_0     C     0.7482     0.4882     0.184
A_3     C     0.1897     0.5436     0.1228
A_3     C     0.0363     0.8842     0.7286
A_2     C     0.4619     0.8115     0.6065
A_1     C     0.1152     0.4525     0.5048
A_0     C     0.2666     0.6034     0.7622
A_2     C     0.0993     0.3601     0.71
A_0     C     0.6092     0.5634     0.6975
A_3     C     0.2859     0.9811     0.4412
A_3     C     0.5661     0.2819     0.2811
A_3     C     0.9944     0.4555     0.3543
A_2     C     0.8236     0.4587     0.3993
A_0     C     0.8315     0.2476     0.6781
A_1     C     0.3132     0.8449     0.4133
A_0     C     0.2082     0.5417     0.2345
A_0     C     0.1969     0.2538     0.9368
A_1     C     0.6412     0.8024     0.887
A_1     C     0.4734     0.7057     0.5227
A_3     C     0.7929     0.4409     0.1567
A_2     C     0.6316     0.903     0.7692
A_2     C     0.9893     0.2289     0.8109
A_1     C     0.4108     0.617     0.0118
A_2     C     0.0376     0.2869     0.3179
A_3     C     0.746     0.0115     0.3843
A_0     C     0.308     0.0687     0.467
A_1     C     0.8213     0.3804     0.339
A_3     C     0.7251     0.8598     0.0337
A_3     C     0.9675     0.243     0.018
A_3     C     0.0955     0.3004     0.5952
A_3     C     0.1278     0.518     0.7404
A_2     C     0.4114     0.7905     0.1484
A_2     C     0.7353     0.2516     0.5403
A_3     C     0.4978     0.3223     0.8244
A_2     C     0.1794     0.3238     0.1464
A_1     C     0.1121     0.421     0.7142
A_3     C     0.0939     0.1896     0.7833
A_2     C     0.0298     0.1734     0.9199
A_0     C     0.6539     0.1663     0.2584
A_3     C     0.8084     0.2558     0.1822
A_2     C     0.5319     0.5938     0.5097
A_3     C     0.7083     0.9779     0.8612
A_0     C     0.919     0.7186     0.5363
A_0     C     0.6542     0.336     0.9089
A_0     C     0.6266     0.5783     0.6282
A_2     C     0.0416     0.1203     0.0863
A_1     C     0.6695     0.8581     0.6895
A_0     C     0.9371     0.6366     0.2944
A_0     C     0.3354     0.8786     0.0284
A_2     C     0.293     0.1705     0.4499
A_3     C     0.9838     0.3526     0.0283
A_0     C     0.9205     0.5207     0.0407
A_3     C     0.1912     0.3027     0.199
A_3     C     0.9982     0.8848     0.2706
A_3     C     0.6725     0.2194     0.8531
A_2     C     0.9286     0.2231     0.5212
A_3     C     0.619     0.8761     0.611
A_1     C     0.9205     0.5082     0.1569
A_1     C     0.5446     0.1058     0.5364
A_0     C     0.4724     0.579     0.6621
A_0     C     0.0823     0.111     0.0876
A_3     C     0.4485     0.4983     0.0716
A_2     C     0.8351     0.0036     0.8976
A_1     C     0.3749     0.6434     0.0276
A_2     C     0.663     0.6302     0.1253
A_2     C     0.1711     0.8797     0.627
A_2     C     0.4452     0.6502     0.1408
A_2     C     0.1387     0.0532     0.9752
A_1     C     0.6487     0.291     0.9016
A_3     C     0.5257     0.9645     0.5336
A_3     C     0.4505     0.3495     0.6058
A_1     C     0.0106     0.2437     0.5246
A_1     C     0.1751     0.6544     0.5852
A_1     C     0.2044     0.1337     0.2855
A_3     C     0.7807     0.245     0.0592
A_1     C     0.6507     0.5232     0.687
A_0     C     0.9516     0.3525     0.6454
A_2     C     0.8053     0.4275     0.4381
A_1     C     0.727     0.1267     0.3329
A_0     C     0.6561     0.2906     0.7321
A_2     C     0.6425     0.093     0.8694
A_2     C     0.8041     0.5144     0.6838
A_0     C     0.692     0.9454     0.09
A_2     C     0.1172     0.9824     0.8426
A_3     C     0.1083     0.3195     0.7464
A_0     C     0.5033     0.8436     0.6714
A_0     C     0.3947     0.789     0.7558
A_3     C     0.6433     0.1476     0.4513
A_1     C     0.3478     0.2755     0.3843
A_3     C     0.3893     0.9457     0.749
A_1     C     0.0174     0.3052     0.6242
A_2     C     0.0243     0.5514     0.0853
A_2     C     0.1932     0.8646     0.811
A_0     C     0.9779     0.8018     0.4205
A_2     C     0.1583     0.1265     0.9608
A_0     C     0.8727     0.008     0.8425
A_3     C     0.3673     0.94     0.8173
A_2     C     0.0957     0.8428     0.7373
A_2     C     0.3778     0.2338     0.4567
A_0     C     0.3629     0.813     0.9162
A_3     C     0.6147     0.7818     0.9751
A_2     C     0.0317     0.6143     0.1139
A_3     C     0.1751     0.2571     0.1714
A_1     C     0.8569     0.3316     0.1444
A_3     C     0.2884     0.5065     0.0048
A_2     C     0.6059     0.8189     0.7861
A_2     C     0.5438     0.8175     0.4828
A_0     C     0.0593     0.5961     0.0916
A_0     C     0.9714     0.1417     0.7153
A_3     C     0.9065     0.4195     0.4523
A_3     C     0.2933     0.7126     0.9459
A_1     C     0.1929     0.4029     0.9166
A_0     C     0.7602     0.2658     0.4728
A_2     C     0.9866     0.7797     0.6042
A_3     C     0.7703     0.0116     0.887
A_0     C     0.7289     0.5842     0.3654
A_3     C     0.2691     0.2786     0.5163
A_2     C     0.3097     0.3941     0.1343
A_3     C     0.1717     0.7265     0.5308
A_0     C     0.6783     0.0447     0.7266
A_1     C     0.9393     0.2756     0.5945
A_0     C     0.44     0.5008     0.188
A_3     C     0.0289     0.4878     0.2803
A_3     C     0.7461     0.1242     0.7739
A_2     C     0.5658     0.3477     0.7045
A_0     C     0.9215     0.8915     0.7986
A_0     C     0.4727     0.142     0.5042
A_3     C     0.5636     0.1554     0.1197
A_0     C     0.2351     0.0217     0.0999
A_3     C     0.1211     0.0321     0.6975
A_0     C     0.2411     0.1516     0.6411
A_2     C     0.4904     0.7763     0.1011
A_3     C     0.758     0.2599     0.7639
A_3     C     0.8411     0.939     0.205
A_0     C     0.1483     0.6031     0.1947
A_0     C     0.9769     0.9991     0.073
A_0     C     0.6474     0.0912     0.044
A_3     C     0.5407     0.6668     0.9298
A_2     C     0.3071     0.5452     0.6769
A_1     C     0.3917     0.6618     0.5096
A_1     C     0.6942     0.7028     0.7023
A_0     C     0.6148     0.0851     0.7444
A_0     C     0.7077     0.6263     0.8524
A_2     C     0.3379     0.4015     0.4172
A_2     C     0.7267     0.4754     0.7428
A_1     C     0.1948     0.5467     0.4805
A_3     C     0.4235     0.4148     0.407
A_1     C     0.8282     0.2691     0.8396
A_0     C     0.2721     0.2884     0.4327
A_0     C     0.5169     0.4278     0.7256
A_1     C     0.2804     0.7105     0.5537
A_1     C     0.4711     0.4899     0.87
A_3     C     0.772     0.8157     0.7645
A_1     C     0.9047     0.4411     0.2634
A_2     C     0.2261     0.6021     0.2309
A_3     C     0.9762     0.4022     0.7085
A_2     C     0.2264     0.8372     0.5757
A_0     C     0.4542     0.7044     0.1188
A_0     C     0.9266     0.445     0.7445
A_3     C     0.6284     0.8647     0.6301
A_2     C     0.1172     0.7199     0.0621
A_2     C     0.8027     0.6432     0.084
A_1     C     0.2236     0.93     0.6783
A_0     C     0.4956     0.7673     0.9933
A_2     C     0.674     0.241     0.7623
A_1     C     0.27     0.8865     0.2254
A_0     C     0.3754     0.4552     0.0666
A_3     C     0.583     0.4616     0.7294
A_2     C     0.7519     0.9959     0.2256
A_0     C     0.4777     0.3635     0.8453
A_2     C     0.1019     0.8395     0.5926
A_2     C     0.1491     0.1221     0.5727
A_3     C     0.2748     0.9733     0.1832
A_0     C     0.9963     0.4214     0.2894
A_1     C     0.7999     0.2103     0.3911
A_2     C     0.3378     0.5162     0.8628
A_0     C     0.8939     0.9607     0.6807
A_1     C     0.4547     0.9003     0.1152
A_3     C     0.6833     0.5911     0.0967
A_2     C     0.5394     0.6986     0.7223
A_3     C     0.8941     0.6087     0.7551
A_2     C     0.3789     0.5589     0.2273
A_1     C     0.8274     0.1572     0.7888
A_1     C     0.8918     0.8601     0.9022
A_0     C     0.4218     0.9352     0.2489
A_0     C     0.8459     0.392     0.3777
A_3     C     0.4317     0.0122     0.8163
A_3     C     0.657     0.4705     0.2969
A_0     C     0.1665     0.4087     0.0252
A_3     C     0.5819     0.2096     0.1328
A_0     C     0.7928     0.8824     0.8114
A_1     C     0.6456     0.2871     0.5762
A_3     C     0.4728     0.2267     0.3261
A_0     C     0.9619     0.4961     0.5394
A_1     C     0.6268     0.8429     0.0866
A_0     C     0.8632     0.0182     0.6293
A_0     C     0.2809     0.4956     0.1676
A_3     C     0.0339     0.4899     0.7242
A_1     C     0.3961     0.8465     0.9494
A_2     C     0.6747     0.6725     0.2206
A_0     C     0.7044     0.1187     0.0626
A_2     C     0.4218     0.7214     0.6672
A_0     C     0.4222     0.9908     0.1418
A_3     C     0.0439     0.714     0.4438
A_2     C     0.0409     0.0331     0.3637
A_3     C     0.9493     0.7822     0.2826
A_0     C     0.6711     0.6572     0.4364
A_2     C     0.3485     0.5082     0.6041
A_0     C     0.536     0.1484     0.3907
A_0     C     0.6537     0.8583     0.7216
A_2     C     0.3674     0.3335     0.7859
A_1     C     0.5249     0.4151     0.9238
A_0     C     0.3369     0.5494     0.6551
A_2     C     0.6047     0.2156     0.6468
A_0     C     0.5232     0.3949     0.5119
A_0     C     0.7089     0.3735     0.4032
A_1     C     0.7727     0.6823     0.6951
A_2     C     0.1094     0.2592     0.727
A_0     C     0.9622     0.6854     0.4822
A_3     C     0.9294     0.9394     0.733
A_2     C     0.5606     0.4715     0.6589
A_0     C     0.765     0.9516     0.5583
A_2     C     0.9733     0.6159     0.7819
A_1     C     0.4468     0.9668     0.5307
A_3     C     0.7825     0.1481     0.7973
A_3     C     0.6094     0.7305     0.2813
A_2     C     0.4544     0.3215     0.5347
A_3     C     0.2841     0.8425     0.7482
A_2     C     0.384     0.2763     0.3767
A_0     C     0.6115     0.377     0.349
A_3     C     0.8069     0.3735     0.4402
A_0     C     0.4088     0.2299     0.624
A_3     C     0.7063     0.1495     0.9969
A_1     C     0.1012     0.3141     0.0221
A_3     C     0.6637     0.0255     0.5985
A_0     C     0.743     0.9844     0.9798
A_2     C     0.5779     0.1657     0.1204
A_1     C     0.0635     0.4163     0.1704
A_3     C     0.6069     0.9984     0.0645
A_0     C     0.6643     0.475     0.312
A_0     C     0.5186     0.5104     0.8079
A_1     C     0.2025     0.6549     0.7681
A_0     C     0.4075     0.0239     0.778
A_2     C     0.2218     0.7148     0.7853
A_1     C     0.688     0.8532     0.5973
A_3     C     0.6275     0.9319     0.9943
A_2     C     0.1671     0.4718     0.4233
A_1     C     0.1677     0.3209     0.2109
A_1     C     0.1716     0.0271     0.2784
A_1     C     0.8236     0.0433     0.8494
A_1     C     0.7993     0.8272     0.3701
A_1     C     0.8554     0.0929     0.9537
A_3     C     0.0096     0.9434     0.3863
A_3     C     0.0658     0.292     0.2195
A_3     C     0.6298     0.7508     0.1395
A_0     C     0.3646     0.957     0.4818
A_1     C     0.8241     0.5304     0.2635
A_2     C     0.1996     0.8872     0.274
A_3     C     0.5755     0.344     0.8373
A_1     C     0.99     0.0323     0.0244
A_0     C     0.5853     0.7577     0.7082
A_3     C     0.8433     0.5079     0.0119
A_3     C     0.9371     0.7261     0.5719
A_2     C     0.8112     0.857     0.7227
A_3     C     0.8382     0.8895     0.5576
A_3     C     0.4907     0.8008     0.0428
A_1     C     0.6663     0.3257     0.6484
A_1     C     0.4247     0.6305     0.8689
A_1     C     0.5751     0.9239     0.5746
A_0     C     0.8531     0.3371     0.7666
A_1     C     0.2545     0.2102     0.0847
A_1     C     0.9166     0.5547     0.7641
A_3     C     0.249     0.7663     0.3465
A_2     C     0.7511     0.3495     0.5052
A_3     C     0.3328     0.6222     0.3782
A_1     C     0.0519     0.1331     0.3975
A_3     C     0.2533     0.0563     0.6881
A_3     C     0.9834     0.8904     0.2277
A_3     C     0.8054     0.409     0.5695
A_3     C     0.7496     0.8368     0.9362
A_1     C     0.6464     0.3908     0.9297
A_3     C     0.2391     0.2766     0.1734
A_2     C     0.4495     0.9774     0.7258
A_2     C     0.674     0.6761     0.358
A_1     C     0.0476     0.1782     0.5461
A_3     C     0.6139     0.39     0.5836
A_1     C     0.0408     0.028     0.6872
A_2     C     0.17     0.6827     0.4651
A_2     C     0.6396     0.5278     0.1391
A_1     C     0.2472     0.7706     0.4676
A_2     C     0.7205     0.9837     0.4383
A_0     C     0.6518     0.916     0.9507
A_0     C     0.9099     0.408     0.7877
A_3     C     0.2079     0.7573     0.6234
A_3     C     0.0535     0.3342     0.187
A_1     C     0.6597     0.3947     0.9951
A_2     C     0.5254     0.8424     0.9794
A_3     C     0.898     0.901     0.9136
A_1     C     0.9604     0.5252     0.2755
A_2     C     0.1992     0.7286     0.1598
A_0     C     0.8272     0.9096     0.0462
A_2     C     0.7695     0.0782     0.7712
A_2     C     0.7405     0.8289     0.7465
A_2     C     0.7807     0.0926     0.1949
A_0     C     0.5786     0.7836     0.3352
A_1     C     0.739     0.1487     0.5636
A_0     C     0.6221     0.5275     0.188
A_0     C     0.2784     0.4381     0.5456
A_0     C     0.2382     0.6135     0.6066
A_3     C     0.3903     0.8296     0.5532
A_3     C     0.0196     0.3256     0.4305
A_3     C     0.0582     0.2393     0.1815
A_3     C     0.6159     0.0699     0.186
A_1     C     0.5875     0.4633     0.6567
A_1     C     0.2086     0.5523     0.0556
A_0     C     0.7653     0.4237     0.7286
A_3     C     0.8768     0.4033     0.3578
A_0     C     0.8344     0.701     0.1936
A_3     C     0.6175     0.6154     0.1404
A_0     C     0.2293     0.7948     0.6928
A_0     C     0.7467     0.4436     0.9052
A_2     C     0.5733     0.1293     0.6028
A_2     C     0.3349     0.0601     0.9636
A_1     C     0.2647     0.613     0.2812
A_2     C     0.3635     0.5976     0.295
A_1     C     0.0549     0.1227     0.5643
A_3     C     0.2872     0.7693     0.9642
A_0     C     0.6815     0.2272     0.0496
A_3     C     0.1728     0.9326     0.8292
A_0     C     0.1238     0.1685     0.6729
A_3     C     0.1408     0.767     0.7659
A_0     C     0.8323     0.3095     0.5525
A_0     C     0.1873     0.684     0.2585
A_3     C     0.3546     0.1219     0.1875
A_0     C     0.5393     0.0577     0.4839
A_3     C     0.1876     0.0053     0.3932
A_0     C     0.0505     0.0164     0.871
A_0     C     0.4614     0.7593     0.7516
A_0     C     0.5576     0.4885     0.6251
A_2     C     0.8328     0.0106     0.0943
A_3     C     0.9978     0.7206     0.2202
A_2     C     0.8922     0.6494     0.9407
A_2     C     0.2401     0.7175     0.7423
A_2     C     0.3914     0.9539     0.1682
A_2     C     0.4899     0.483     0.9827
A_1     C     0.6231     0.7756     0.0124
A_3     C     0.6933     0.8565     0.1204
A_0     C     0.4263     0.8008     0.6319
A_2     C     0.5127     0.6193     0.0571
A_1     C     0.2963     0.6142     0.7264
A_2     C     0.3622     0.6842     0.6118
A_1     C     0.3405     0.1298     0.0724
A_1     C     0.3012     0.7523     0.211
A_2     C     0.6608     0.869     0.4096
A_2     C     0.5906     0.6016     0.0062
A_3     C     0.0213     0.4521     0.8264
A_0     C     0.819     0.0594     0.1791
A_3     C     0.5388     0.3751     0.1661
A_3     C     0.3225     0.3473     0.666
A_0     C     0.8232     0.4191     0.9147
A_2     C     0.1061     0.5784     0.8617
A_1     C     0.1616     0.7711     0.172
A_3     C     0.1722     0.3109     0.4106
A_0     C     0.4251     0.8259     0.7574
A_3     C     0.2615     0.64     0.4386
A_2     C     0.5494     0.8163     0.478
A_1     C     0.8501     0.5178     0.3474
A_1     C     0.7833     0.0583     0.9176
A_1     C     0.3284     0.5912     0.5339
A_2     C     0.0064     0.7201     0.268
A_2     C     0.242     0.8463     0.4372
A_3     C     0.5703     0.5181     0.6297
A_1     C     0.4097     0.0206     0.399
A_3     C     0.7044     0.0237     0.7992
A_3     C     0.5718     0.5885     0.9697
A_0     C     0.1116     0.5415     0.662
A_2     C     0.2246     0.9598     0.7569
A_3     C     0.8055     0.817     0.731
A_0     C     0.1409     0.5598     0.1165
A_2     C     0.7811     0.6014     0.8748
A_3     C     0.8458     0.7101     0.7935
A_1     C     0.7642     0.0782     0.1507
A_2     C     0.0608     0.97     0.0933
A_0     C     0.1791     0.2971     0.1692
A_3     C     0.719     0.0914     0.365
A_2     C     0.2694     0.8452     0.2693
A_3     C     0.0908     0.177     0.7757
A_1     C     0.2294     0.0204     0.01
A_1     C     0.2431     0.5994     0.4962
A_0     C     0.3712     0.8605     0.9468
A_1     C     0.0124     0.4034     0.3078
A_0     C     0.7933     0.2244     0.8833
A_2     C     0.4711     0.3804     0.7467
A_1     C     0.9227     0.895     0.8357
A_3     C     0.7442     0.897     0.2088
A_2     C     0.917     0.2291     0.7905
A_1     C     0.2823     0.2849     0.3174
A_3     C     0.7149     0.1224     0.9379
A_0     C     0.9004     0.7361     0.6479
A_2     C     0.1264     0.7917     0.0837
A_0     C     0.0987     0.0901     0.2535
A_2     C     0.4275     0.1164     0.3156
A_3     C     0.6251     0.8245     0.9847
A_3     C     0.4294     0.7078     0.0201
A_2     C     0.4138     0.4302     0.691
A_3     C     0.2124     0.8311     0.6788
A_1     C     0.8106     0.9035     0.2201
A_2     C     0.2797     0.2962     0.1956
A_3     C     0.0496     0.1054     0.599
A_0     C     0.4196     0.6322     0.0495
A_1     C     0.0342     0.6234     0.3006
A_2     C     0.1886     0.4047     0.3215
A_2     C     0.3549     0.7726     0.1302
A_2     C     0.7143     0.0728     0.6328
A_2     C     0.0225     0.3581     0.7001
A_1     C     0.8107     0.1622     0.7084
A_2     C     0.5121     0.052     0.5936
A_1     C     0.2065     0.8035     0.5182
A_3     C     0.8952     0.6768     0.3023
A_3     C     0.0831     0.7902     0.8033
A_0     C     0.3236     0.3903     0.2199
A_3     C     0.7093     0.7181     0.2518
A_1     C     0.8264     0.0011     0.7354
A_0     C     0.9544     0.7616     0.3266
A_1     C     0.5127     0.1347     0.216
A_1     C     0.8791     0.1671     0.2515
A_1     C     0.4426     0.2244     0.9336
A_2     C     0.1896     0.4657     0.4843
A_2     C     0.0564     0.2234     0.0598
A_3     C     0.2113     0.1639     0.5221
A_3     C     0.3659     0.9648     0.5511
A_2     C     0.2183     0.3313     0.2668
A_0     C     0.7901     0.7516     0.4593
A_2     C     0.9113     0.7463     0.3356
A_1     C     0.6124     0.0693     0.6894
A_0     C     0.5122     0.2105     0.3863
A_3     C     0.7471     0.1199     0.286
A_2     C     0.0926     0.1832     0.8839
A_2     C     0.801     0.5652     0.5088
A_3     C     0.9085     0.7642     0.561
A_1     C     0.0226     0.2993     0.9355
A_0     C     0.7937     0.668     0.3166
A_1     C     0.436     0.1815     0.3135
A_0     C     0.6147     0.7037     0.5857
A_3     C     0.1343     0.4914     0.376
A_1     C     0.4638     0.2495     0.1539
A_0     C     0.8889     0.6908     0.2133
A_3     C     0.9121     0.0745     0.0154
A_0     C     0.631     0.8253     0.1728
A_2     C     0.0621     0.5704     0.1778
A_1     C     0.3476     0.2746     0.3653
A_1     C     0.1292     0.3946     0.4571
A_0     C     0.0203     0.9697     0.8968
A_3     C     0.829     0.4764     0.1978
A_3     C     0.8678     0.8412     0.0158
A_2     C     0.2943     0.9766     0.4139
A_1     C     0.0546     0.4068     0.5723
A_1     C     0.9621     0.5882     0.8783
A_1     C     0.877     0.8126     0.4019
A_0     C     0.094     0.4764     0.5399
A_2     C     0.8817     0.7841     0.549
A_3     C     0.7561     0.8991     0.6058
A_2     C     0.1743     0.7033     0.0859
A_3     C     0.4111     0.5145     0.3066
A_2     C     0.9808     0.2247     0.6959
A_2     C     0.75     0.492     0.6554
A_3     C     0.6534     0.2398     0.5989
A_2     C     0.4055     0.1753     0.8719
A_2     C     0.5283     0.5339     0.5846
A_1     C     0.6144     0.6813     0.7841
A_3     C     0.5568     0.452     0.6803
A_1     C     0.6561     0.8325     0.0328
A_0     C     0.3543     0.1528     0.1081
A_2     C     0.3042     0.7224     0.7866
A_3     C     0.0955     0.3293     0.648
A_2     C     0.8286     0.8927     0.2456
A_1     C     0.8179     0.1545     0.3347
A_0     C     0.9051     0.6732     0.3506
A_0     C     0.7992     0.1122     0.0337
A_0     C     0.3777     0.4484     0.3597
A_3     C     0.1793     0.0021     0.9538
A_2     C     0.665     0.1259     0.8965
A_0     C     0.6132     0.7478     0.9573
A_1     C     0.1662     0.59     0.834
A_1     C     0.0855     0.6419     0.0168
A_3     C     0.6761     0.4739     0.2072
A_2     C     0.6409     0.8965     0.7587
A_0     C     0.9307     0.5895     0.0301
A_0     C     0.0466     0.6281     0.7141
A_1     C     0.915     0.1519     0.5238
A_0     C     0.1358     0.574     0.0444
A_2     C     0.471     0.5572     0.3763
A_2     C     0.1271     0.707     0.4378
A_0     C     0.9564     0.026     0.383
A_2     C     0.4496     0.0501     0.1922
A_2     C     0.095     0.8509     0.6445
A_3     C     0.1491     0.3646     0.0996
A_3     C     0.9559     0.8312     0.8325
A_0     C     0.0607     0.6747     0.8472
A_0     C     0.2948     0.0802     0.0903
A_1     C     0.293     0.739     0.8207
A_3     C     0.0606     0.5922     0.9105
A_2     C     0.7799     0.1555     0.1716
A_0     C     0.1427     0.106     0.5875
A_3     C     0.2772     0.6495     0.0836
A_2     C     0.4398     0.7825     0.7298
A_3     C     0.7394     0.9625     0.5169
A_1     C     0.9208     0.5858     0.7375
A_1     C     0.4633     0.4084     0.2256
A_1     C     0.9835     0.1549     0.256
A_1     C     0.8723     0.6364     0.0601
A_3     C     0.0724     0.6592     0.2301
A_2     C     0.8188     0.5671     0.4852
A_3     C     0.9329     0.7962     0.7121
A_2     C     0.9951     0.9145     0.1772
A_0     C     0.3235     0.2919     0.4466
A_1     C     0.2346     0.3314     0.524
A_0     C     0.5621     0.4081     0.6595
A_2     C     0.7952     0.3741     0.4489
A_3     C     0.074     0.7569     0.382
A_2     C     0.2523     0.89     0.4018
A_1     C     0.89     0.6769     0.3984
A_1     C     0.0912     0.8862     0.451
A_1     C     0.1314     0.5045     0.1827
A_0     C     0.0829     0.7682     0.8591
A_2     C     0.1165     0.0942     0.2919
A_3     C     0.4856     0.5691     0.2991
A_3     C     0.4795     0.1841     0.34
A_1     C     0.5361     0.972     0.0495
A_2     C     0.2054     0.5976     0.7847
A_1     C     0.8138     0.7321     0.219
A_2     C     0.3939     0.6265     0.1248
A_3     C     0.7571     0.1441     0.6718
A_2     C     0.0667     0.1472     0.8544
A_0     C     0.8738     0.2104     0.5336
