MAT-36

loop_
_symmetry_equiv_pos_as_xyz
  x,y,z
_cell_length_a          48.7535
_cell_length_b          25.6961
_cell_length_c          43.8392
_cell_angle_alpha       90.0000
_cell_angle_beta        90.0000
_cell_angle_gamma       90.0000
loop_
_atom_site_label
_atom_site_type_symbol
_atom_site_fract_x
_atom_site_fract_y
_atom_site_fract_z
A_1     C     0.7129     0.0249     0.6619
A_3     C     0.1631     0.5703     0.6864
A_0     C     0.8962     0.2571     0.1799
A_0     C     0.0915     0.3434     0.3275
A_3     C     0.4261     0.2633     0.2686
A_0     C     0.799     0.098     0.9231
A_0     C     0.829     0.6834     0.9857
A_3     C     0.3273     0.7006     0.5545
A_3     C     0.838     0.2102     0.8272
A_1     C     0.1127     0.6851     0.4293
A_2     C     0.5251     0.9591     0.9426
A_3     C     0.272     0.931     0.2605
A_3     C     0.086     0.5518     0.0595
A_3     C     0.4842     0.9808     0.2833
A_0     C     0.8042     0.3834     0.1833
A_0     C     0.4438     0.7598     0.5853
A_0     C     0.5291     0.59     0.9507
A_1     C     0.5173     0.051     0.6685
A_3     C     0.4214     0.6773     0.3892
A_3     C     0.6164     0.2249     0.7019
A_2     C     0.0707     0.5351     0.8253
A_1     C     0.2395     0.5998     0.4159
A_0     C     0.9656     0.1865     0.209
A_0     C     0.8558     0.8864     0.2435
A_2     C     0.1941     0.9919     0.1383
A_2     C     0.5809     0.2306     0.7571
A_3     C     0.7588     0.4538     0.4123
A_1     C     0.9186     0.0436     0.7626
A_3     C     0.2494     0.765     0.78
A_0     C     0.9379     0.238     0.7574
A_0     C     0.6933     0.9238     0.0989
A_1     C     0.0184     0.7101     0.0592
A_3     C     0.8693     0.9142     0.2575
A_1     C     0.192     0.9097     0.8354
A_1     C     0.069     0.1158     0.7613
A_1     C     0.2641     0.0409     0.662
A_3     C     0.4551     0.2043     0.8669
A_3     C     0.8416     0.3727     0.5338
A_0     C     0.1052     0.0539     0.481
A_1     C     0.2486     0.1211     0.0469
A_2     C     0.0185     0.9647     0.0297
A_1     C     0.8781     0.8339     0.5219
A_3     C     0.9254     0.4218     0.4042
A_3     C     0.4859     0.8669     0.927
A_2     C     0.2859     0.0459     0.4476
A_2     C     0.04     0.6003     0.2122
A_2     C     0.3776     0.0119     0.3587
A_2     C     0.2342     0.5824     0.9334
A_3     C     0.3644     0.7356     0.867
A_1     C     0.0389     0.7457     0.5977
A_3     C     0.6416     0.5286     0.7507
A_2     C     0.9232     0.9019     0.9744
A_3     C     0.3409     0.5129     0.6346
A_3     C     0.0718     0.4287     0.544
A_1     C     0.1582     0.4991     0.6293
A_1     C     0.258     0.4298     0.8984
A_3     C     0.8856     0.9319     0.5977
A_0     C     0.1441     0.0342     0.3842
A_1     C     0.5149     0.3362     0.394
A_0     C     0.2719     0.7805     0.2243
A_0     C     0.5422     0.2265     0.1684
A_0     C     0.0808     0.3825     0.9639
A_1     C     0.5234     0.0729     0.5861
A_3     C     0.8959     0.6989     0.5025
A_3     C     0.2672     0.9943     0.2909
A_1     C     0.3296     0.784     0.6864
A_3     C     0.9834     0.7285     0.5812
A_1     C     0.5467     0.1113     0.2566
A_3     C     0.6209     0.7658     0.9207
A_1     C     0.9604     0.6355     0.848
A_2     C     0.4095     0.8557     0.8532
A_3     C     0.6748     0.4603     0.6261
A_3     C     0.8183     0.8642     0.8628
A_1     C     0.3215     0.9189     0.3358
A_1     C     0.2942     0.3558     0.2333
A_0     C     0.1345     0.1105     0.4565
A_2     C     0.6714     0.2572     0.9579
A_1     C     0.1402     0.947     0.5007
A_3     C     0.6922     0.9649     0.8209
A_1     C     0.2349     0.9457     0.9691
A_1     C     0.1909     0.8497     0.5678
A_0     C     0.9896     0.7403     0.9911
A_2     C     0.6053     0.964     0.0366
A_0     C     0.8658     0.4454     0.4898
A_0     C     0.7652     0.9509     0.4821
A_2     C     0.8823     0.9064     0.7185
A_3     C     0.1654     0.5587     0.7099
A_1     C     0.3336     0.6506     0.5532
A_2     C     0.7154     0.096     0.6577
A_0     C     0.1346     0.5803     0.6756
A_3     C     0.4449     0.7982     0.2117
A_0     C     0.5397     0.4468     0.7198
A_2     C     0.6654     0.6898     0.1454
A_2     C     0.6099     0.5926     0.6943
A_3     C     0.7853     0.3562     0.8686
A_1     C     0.0004     0.6779     0.5153
A_2     C     0.7996     0.917     0.3876
A_1     C     0.234     0.6809     0.4891
A_2     C     0.4464     0.8726     0.1946
A_3     C     0.6939     0.1913     0.2126
A_2     C     0.0695     0.4748     0.9277
A_3     C     0.6933     0.4897     0.5415
A_0     C     0.3936     0.4347     0.5638
A_1     C     0.2943     0.0908     0.9166
A_0     C     0.0394     0.524     0.2876
A_1     C     0.5785     0.6518     0.4686
A_1     C     0.5459     0.1098     0.2638
A_3     C     0.4323     0.7773     0.61
A_1     C     0.3836     0.0528     0.4489
A_3     C     0.0551     0.6001     0.3196
A_3     C     0.0241     0.8273     0.4722
A_2     C     0.2285     0.4614     0.5435
A_2     C     0.5155     0.4593     0.7358
A_0     C     0.8294     0.3694     0.955
A_2     C     0.9429     0.5489     0.0442
A_3     C     0.3855     0.2061     0.0817
A_3     C     0.96     0.8246     0.5568
A_3     C     0.5853     0.621     0.4555
A_0     C     0.6228     0.5081     0.8807
A_2     C     0.6721     0.9648     0.3013
A_0     C     0.8303     0.2638     0.914
A_1     C     0.954     0.1168     0.6121
A_0     C     0.653     0.132     0.8225
A_1     C     0.2889     0.7891     0.5095
A_0     C     0.807     0.0037     0.9304
A_1     C     0.8268     0.1236     0.3866
A_3     C     0.2343     0.3481     0.904
A_0     C     0.5484     0.6247     0.4827
A_0     C     0.5667     0.1242     0.8129
A_2     C     0.8506     0.939     0.5046
A_0     C     0.4754     0.6515     0.4091
A_2     C     0.2337     0.7833     0.0459
A_3     C     0.1751     0.078     0.3363
A_0     C     0.6082     0.2964     0.1472
A_1     C     0.4592     0.3158     0.7575
A_0     C     0.7401     0.2091     0.8296
A_0     C     0.6394     0.3985     0.7813
A_0     C     0.3348     0.2765     0.7319
A_2     C     0.9015     0.842     0.1012
A_3     C     0.2537     0.5879     0.6044
A_2     C     0.9243     0.4377     0.8139
A_3     C     0.5619     0.3574     0.0772
A_3     C     0.2809     0.7835     0.5643
A_0     C     0.0497     0.849     0.6573
A_1     C     0.5062     0.4644     0.5568
A_3     C     0.1223     0.5767     0.5178
A_3     C     0.0374     0.2941     0.9878
A_3     C     0.8372     0.4465     0.443
A_1     C     0.9984     0.8701     0.0894
A_2     C     0.2259     0.0968     0.3637
A_2     C     0.056     0.3259     0.6743
A_2     C     0.6666     0.6606     0.4936
A_2     C     0.0955     0.7472     0.8467
A_3     C     0.0166     0.3689     0.0698
A_2     C     0.2977     0.3841     0.09
A_3     C     0.9698     0.3798     0.0869
A_2     C     0.4442     0.075     0.3133
A_2     C     0.9095     0.4148     0.7028
A_1     C     0.5064     0.2113     0.7667
A_1     C     0.7353     0.5553     0.8689
A_2     C     0.3809     0.6498     0.2725
A_0     C     0.8447     0.5593     0.8152
A_1     C     0.6037     0.0125     0.2493
A_2     C     0.0311     0.3734     0.0534
A_1     C     0.1603     0.736     0.4794
A_1     C     0.8525     0.2357     0.2221
A_1     C     0.2218     0.081     0.7426
A_0     C     0.2173     0.182     0.2934
A_2     C     0.9697     0.4875     0.3725
A_1     C     0.8118     0.6976     0.1614
A_0     C     0.354     0.5452     0.063
A_3     C     0.5977     0.941     0.5808
A_2     C     0.0763     0.6806     0.7251
A_1     C     0.7874     0.0944     0.7421
A_3     C     0.7571     0.0769     0.2081
A_3     C     0.0923     0.9881     0.5454
A_2     C     0.3053     0.4949     0.3494
A_2     C     0.9763     0.2869     0.6469
A_3     C     0.4792     0.0654     0.576
A_3     C     0.1048     0.8196     0.7769
A_3     C     0.6279     0.1675     0.7851
A_2     C     0.0363     0.6488     0.1963
A_0     C     0.9409     0.4215     0.4392
A_0     C     0.837     0.3312     0.6398
A_3     C     0.9785     0.5352     0.3599
A_2     C     0.8775     0.8138     0.6964
A_1     C     0.1823     0.5452     0.4559
A_2     C     0.9668     0.4887     0.0516
A_2     C     0.6088     0.3038     0.7889
A_0     C     0.0206     0.1733     0.6134
A_0     C     0.5687     0.5561     0.7371
A_1     C     0.0054     0.6023     0.41
A_3     C     0.9246     0.869     0.4384
A_1     C     0.5627     0.2135     0.3048
A_2     C     0.2012     0.4375     0.3355
A_1     C     0.7564     0.2466     0.2896
A_1     C     0.4446     0.7284     0.1519
A_0     C     0.5902     0.0311     0.9446
A_3     C     0.9139     0.2848     0.7599
A_0     C     0.5024     0.2278     0.3407
A_0     C     0.0153     0.9551     0.5275
A_3     C     0.102     0.295     0.7504
A_1     C     0.5656     0.124     0.9307
A_3     C     0.3516     0.8686     0.8576
A_2     C     0.5526     0.1197     0.8629
A_0     C     0.0938     0.1269     0.2215
A_3     C     0.2576     0.4487     0.3577
A_1     C     0.1377     0.7566     0.3172
A_3     C     0.0416     0.6314     0.3144
A_0     C     0.3499     0.1096     0.829
A_2     C     0.7447     0.8129     0.4252
A_1     C     0.7554     0.9413     0.2313
A_3     C     0.4503     0.0296     0.5927
A_1     C     0.3218     0.0062     0.0458
A_1     C     0.0271     0.9984     0.5736
A_1     C     0.5747     0.43     0.251
A_2     C     0.8436     0.2842     0.6648
A_1     C     0.614     0.0166     0.7658
A_1     C     0.0766     0.8027     0.9149
A_1     C     0.2408     0.2146     0.4013
A_1     C     0.3346     0.4012     0.525
A_3     C     0.8453     0.6048     0.1781
A_2     C     0.5609     0.3971     0.3729
A_1     C     0.4552     0.7236     0.0924
A_3     C     0.4764     0.699     0.2406
A_0     C     0.2671     0.8546     0.1336
A_3     C     0.4968     0.7626     0.5897
A_2     C     0.3783     0.8846     0.8941
A_2     C     0.0154     0.1699     0.7817
A_1     C     0.311     0.6644     0.544
A_2     C     0.2192     0.9167     0.1191
A_1     C     0.2027     0.8983     0.2255
A_2     C     0.5138     0.7009     0.0604
A_2     C     0.344     0.6644     0.4755
A_1     C     0.7521     0.3196     0.0678
A_1     C     0.046     0.1868     0.3018
A_1     C     0.6582     0.1048     0.0261
A_1     C     0.3593     0.0454     0.7165
A_0     C     0.2535     0.6614     0.0621
A_2     C     0.012     0.9057     0.5805
A_1     C     0.7827     0.0866     0.7497
A_1     C     0.9718     0.678     0.0727
A_2     C     0.1008     0.1863     0.5946
A_2     C     0.0162     0.0693     0.5091
A_2     C     0.4266     0.3445     0.8105
A_3     C     0.7946     0.2008     0.5607
A_2     C     0.6461     0.4195     0.1186
A_0     C     0.2196     0.3937     0.2347
A_1     C     0.1613     0.2224     0.1768
A_0     C     0.2813     0.6305     0.2703
A_1     C     0.1098     0.6391     0.355
A_1     C     0.2775     0.1943     0.0602
A_0     C     0.3892     0.719     0.5756
A_3     C     0.3666     0.1257     0.9557
A_3     C     0.2574     0.4681     0.354
A_2     C     0.6263     0.0795     0.5735
A_1     C     0.2283     0.1403     0.7552
A_3     C     0.3446     0.853     0.5891
A_0     C     0.8576     0.6267     0.0952
A_0     C     0.7828     0.9486     0.9556
A_0     C     0.563     0.165     0.2283
A_3     C     0.4848     0.4431     0.7866
A_1     C     0.7925     0.1775     0.6936
A_2     C     0.3652     0.1666     0.1012
A_3     C     0.3795     0.7337     0.1883
A_1     C     0.6535     0.497     0.1812
A_0     C     0.1079     0.5443     0.2395
A_3     C     0.4683     0.9283     0.1126
A_0     C     0.1115     0.9039     0.125
A_0     C     0.3754     0.1171     0.8928
A_1     C     0.12     0.3089     0.919
A_1     C     0.6394     0.0611     0.625
A_2     C     0.6759     0.1767     0.7669
A_3     C     0.6551     0.913     0.8585
A_3     C     0.3932     0.7406     0.4839
A_2     C     0.1119     0.6386     0.3125
A_2     C     0.0281     0.9839     0.5217
A_2     C     0.573     0.1556     0.138
A_0     C     0.3332     0.4142     0.4038
A_2     C     0.5839     0.8136     0.092
A_2     C     0.8816     0.5237     0.354
A_2     C     0.6571     0.3332     0.2312
A_3     C     0.3693     0.0038     0.2217
A_1     C     0.3157     0.6873     0.2144
A_0     C     0.3912     0.4076     0.4896
A_3     C     0.3975     0.6263     0.7889
A_2     C     0.9851     0.2303     0.3319
A_2     C     0.9646     0.4393     0.4477
A_1     C     0.8396     0.5306     0.2263
A_2     C     0.0471     0.6065     0.9214
A_3     C     0.2424     0.7814     0.4199
A_0     C     0.0878     0.1469     0.7738
A_2     C     0.193     0.6008     0.9735
A_1     C     0.7798     0.4575     0.4187
A_0     C     0.1909     0.0814     0.5008
A_3     C     0.8514     0.7054     0.078
A_1     C     0.3703     0.2286     0.8037
A_2     C     0.6418     0.6031     0.1474
A_0     C     0.371     0.8038     0.1553
A_2     C     0.6832     0.2228     0.4205
A_2     C     0.1824     0.0312     0.1435
A_2     C     0.6921     0.3385     0.9529
A_1     C     0.4103     0.1217     0.3235
A_2     C     0.7624     0.6733     0.0761
A_1     C     0.0466     0.6713     0.8623
A_2     C     0.9617     0.9199     0.7542
A_2     C     0.1804     0.9135     0.4986
A_2     C     0.6848     0.4433     0.3889
A_3     C     0.2458     0.5652     0.0277
A_1     C     0.7361     0.5467     0.4998
A_2     C     0.2111     0.9017     0.7649
A_2     C     0.6751     0.9867     0.4127
A_3     C     0.6958     0.5363     0.5026
A_2     C     0.2959     0.6536     0.512
A_0     C     0.6428     0.6504     0.5924
A_1     C     0.2138     0.4884     0.7014
A_1     C     0.9793     0.1201     0.406
A_3     C     0.2536     0.9011     0.678
A_3     C     0.9848     0.6677     0.2689
A_1     C     0.2642     0.8599     0.5837
A_1     C     0.7214     0.2504     0.17
A_3     C     0.6969     0.5231     0.9398
A_0     C     0.6218     0.4126     0.6951
A_3     C     0.2026     0.088     0.379
A_0     C     0.4636     0.8264     0.7714
A_1     C     0.1296     0.7913     0.0956
A_1     C     0.2132     0.5869     0.4032
A_1     C     0.348     0.8133     0.7534
A_0     C     0.4064     0.939     0.8492
A_1     C     0.3351     0.3533     0.8827
A_1     C     0.9024     0.2801     0.8418
A_0     C     0.7534     0.6506     0.227
A_3     C     0.9931     0.2978     0.632
A_0     C     0.44     0.5862     0.3666
A_0     C     0.0712     0.7731     0.6777
A_2     C     0.8861     0.6741     0.0161
A_1     C     0.6168     0.0469     0.2087
A_2     C     0.701     0.0506     0.5094
A_1     C     0.4383     0.2395     0.5985
A_2     C     0.4511     0.5557     0.5068
A_2     C     0.1548     0.4074     0.8084
A_1     C     0.3146     0.8996     0.8914
A_2     C     0.5501     0.0989     0.3241
A_0     C     0.0176     0.6266     0.4838
A_0     C     0.9796     0.8021     0.5592
A_3     C     0.6616     0.361     0.8319
A_0     C     0.7922     0.7051     0.3029
A_3     C     0.2964     0.8676     0.7948
A_0     C     0.579     0.1027     0.8992
A_1     C     0.182     0.6923     0.8734
A_0     C     0.6205     0.5944     0.2404
A_0     C     0.7926     0.4713     0.5853
A_1     C     0.8155     0.6628     0.7799
A_2     C     0.074     0.6568     0.5818
A_2     C     0.0018     0.3462     0.4398
A_3     C     0.0362     0.6434     0.0196
A_3     C     0.3246     0.5926     0.168
A_0     C     0.2337     0.0906     0.5498
A_2     C     0.9031     0.9784     0.2918
A_0     C     0.8679     0.3265     0.2851
A_0     C     0.8078     0.2239     0.1758
A_3     C     0.3782     0.1267     0.8119
A_0     C     0.792     0.6498     0.3542
A_0     C     0.7628     0.1641     0.4581
A_2     C     0.1704     0.3043     0.6743
A_3     C     0.277     0.9197     0.1553
A_1     C     0.7109     0.1151     0.0748
A_3     C     0.1542     0.5601     0.6021
A_1     C     0.7121     0.3075     0.1948
A_1     C     0.083     0.7038     0.7725
A_1     C     0.7349     0.7727     0.3351
A_1     C     0.3251     0.9446     0.2284
A_3     C     0.2643     0.7519     0.7141
A_3     C     0.8254     0.8923     0.2252
A_1     C     0.8862     0.6587     0.0104
A_2     C     0.6704     0.2985     0.7181
A_3     C     0.468     0.7724     0.3412
A_3     C     0.61     0.2944     0.1677
A_3     C     0.4122     0.9845     0.7948
A_2     C     0.9861     0.6198     0.5016
A_3     C     0.6584     0.7003     0.4903
A_1     C     0.1891     0.0109     0.0606
A_2     C     0.5999     0.2154     0.714
A_3     C     0.2785     0.539     0.3423
A_0     C     0.8336     0.6468     0.9209
A_0     C     0.5447     0.5894     0.3783
A_2     C     0.7675     0.768     0.4173
A_0     C     0.2358     0.7857     0.3965
A_2     C     0.8179     0.2179     0.8417
A_2     C     0.4044     0.5593     0.8763
A_2     C     0.9823     0.1203     0.0061
A_1     C     0.1987     0.8074     0.4052
A_2     C     0.8446     0.2752     0.4495
A_0     C     0.5044     0.3268     0.6065
A_1     C     0.547     0.3141     0.6355
A_2     C     0.223     0.7969     0.272
A_2     C     0.2926     0.9791     0.1383
A_1     C     0.4671     0.4371     0.7669
A_3     C     0.681     0.2038     0.1711
A_2     C     0.9504     0.7059     0.8003
A_3     C     0.5849     0.2013     0.9468
A_2     C     0.5228     0.6157     0.0546
A_0     C     0.0411     0.4869     0.9154
A_3     C     0.4808     0.2416     0.9483
A_3     C     0.3005     0.0632     0.1167
A_3     C     0.6243     0.9906     0.6725
A_0     C     0.2621     0.9047     0.8018
A_2     C     0.8347     0.5739     0.8046
A_0     C     0.687     0.6088     0.8666
A_0     C     0.4318     0.2131     0.2045
A_2     C     0.8794     0.9468     0.2714
A_1     C     0.114     0.2183     0.4361
A_3     C     0.839     0.602     0.5983
A_3     C     0.4162     0.5839     0.8886
A_1     C     0.9997     0.0759     0.193
A_1     C     0.9231     0.4766     0.442
A_2     C     0.1272     0.8485     0.7779
A_3     C     0.76     0.6704     0.2783
A_0     C     0.719     0.4664     0.9133
A_1     C     0.7495     0.6613     0.4691
A_1     C     0.3481     0.3201     0.9926
A_1     C     0.4083     0.5229     0.0137
A_0     C     0.2633     0.1508     0.1498
A_0     C     0.2782     0.3119     0.5977
A_2     C     0.7424     0.9153     0.7988
A_0     C     0.8139     0.8805     0.4602
A_3     C     0.9667     0.0036     0.414
A_1     C     0.6218     0.3965     0.7347
A_1     C     0.2125     0.9406     0.5083
A_2     C     0.8551     0.4743     0.7568
A_0     C     0.4276     0.1932     0.1272
A_0     C     0.181     0.7246     0.0681
A_1     C     0.504     0.8538     0.7661
A_3     C     0.6903     0.4664     0.7608
A_2     C     0.1446     0.5351     0.7992
A_0     C     0.1766     0.7487     0.6016
A_2     C     0.9113     0.741     0.1976
A_0     C     0.1903     0.6314     0.9391
A_3     C     0.8927     0.6563     0.608
A_1     C     0.8462     0.5539     0.7223
A_3     C     0.6295     0.5325     0.9009
A_2     C     0.0314     0.8873     0.2245
A_3     C     0.682     0.3374     0.7989
A_0     C     0.3225     0.8562     0.74
A_2     C     0.0443     0.2749     0.1287
A_2     C     0.5261     0.4313     0.6573
A_0     C     0.4717     0.1708     0.0319
A_0     C     0.3209     0.3252     0.7692
A_2     C     0.3413     0.3831     0.1557
A_2     C     0.5755     0.5494     0.3492
A_3     C     0.4256     0.3476     0.2239
A_2     C     0.7571     0.0913     0.6564
A_0     C     0.0637     0.2679     0.9603
A_2     C     0.0524     0.1306     0.4124
A_3     C     0.0768     0.5186     0.0226
A_3     C     0.7431     0.9767     0.1924
A_0     C     0.6507     0.1835     0.6324
A_1     C     0.106     0.6269     0.747
A_3     C     0.0224     0.4134     0.0608
A_1     C     0.8469     0.9714     0.5611
A_2     C     0.6958     0.3425     0.242
A_1     C     0.1327     0.3882     0.6817
A_0     C     0.1733     0.7255     0.0081
A_1     C     0.0977     0.8221     0.4666
A_3     C     0.1084     0.1012     0.9202
A_3     C     0.424     0.4972     0.632
A_3     C     0.7484     0.95     0.2325
A_1     C     0.1893     0.0905     0.2696
A_3     C     0.7075     0.06     0.5027
A_1     C     0.3266     0.9209     0.5766
A_2     C     0.1597     0.3331     0.2561
A_3     C     0.4761     0.2214     0.6087
A_2     C     0.1684     0.7747     0.1548
A_0     C     0.8413     0.5729     0.3123
A_1     C     0.2371     0.3839     0.8459
A_3     C     0.0493     0.885     0.7457
A_2     C     0.7871     0.5896     0.769
A_2     C     0.7874     0.2688     0.9815
A_0     C     0.5149     0.4948     0.7213
A_1     C     0.714     0.8645     0.8667
A_2     C     0.3745     0.4922     0.0849
A_2     C     0.8083     0.6111     0.2769
A_0     C     0.414     0.9542     0.2508
A_0     C     0.3129     0.7274     0.4622
A_2     C     0.077     0.9204     0.7078
A_1     C     0.605     0.7318     0.2102
A_0     C     0.3484     0.066     0.3727
A_2     C     0.1753     0.9497     0.6977
A_0     C     0.2627     0.7646     0.0162
A_2     C     0.7241     0.1881     0.2492
A_3     C     0.1863     0.9934     0.3212
A_3     C     0.8044     0.0779     0.2065
A_1     C     0.1995     0.9914     0.2122
A_3     C     0.5886     0.767     0.8049
A_3     C     0.4042     0.5576     0.8539
A_0     C     0.0231     0.0426     0.0099
A_2     C     0.7208     0.4226     0.6578
A_0     C     0.3536     0.4536     0.7177
A_0     C     0.7699     0.9387     0.4647
A_1     C     0.7263     0.3531     0.3828
A_2     C     0.8195     0.5673     0.9181
A_3     C     0.6814     0.0101     0.4774
A_3     C     0.9178     0.34     0.3572
A_1     C     0.0179     0.8888     0.7309
A_3     C     0.0896     0.6111     0.4493
A_3     C     0.2539     0.2259     0.0346
A_0     C     0.386     0.3847     0.8886
A_1     C     0.9865     0.9816     0.9211
A_0     C     0.8946     0.3497     0.0433
A_0     C     0.6306     0.8978     0.6922
A_3     C     0.374     0.9842     0.662
A_2     C     0.8868     0.7074     0.7852
A_0     C     0.3502     0.6582     0.3419
A_1     C     0.6548     0.917     0.5937
A_3     C     0.1006     0.7918     0.0057
A_3     C     0.9602     0.9066     0.5692
A_3     C     0.1714     0.8415     0.7401
A_1     C     0.6777     0.8197     0.7147
A_3     C     0.3379     0.0131     0.3474
A_2     C     0.8176     0.0365     0.5466
A_2     C     0.031     0.0286     0.9805
A_0     C     0.1494     0.4515     0.2913
A_0     C     0.1643     0.2562     0.9628
A_1     C     0.2893     0.5116     0.3681
A_0     C     0.3816     0.5976     0.6589
A_1     C     0.4154     0.2303     0.4865
A_2     C     0.5863     0.9887     0.0652
A_3     C     0.3507     0.8727     0.2505
A_3     C     0.1289     0.8691     0.035
A_0     C     0.6027     0.9475     0.6781
A_1     C     0.8882     0.5077     0.9451
A_0     C     0.423     0.0445     0.6442
A_1     C     0.7693     0.2402     0.4173
A_3     C     0.6037     0.3937     0.6915
A_2     C     0.6067     0.1425     0.9714
A_3     C     0.4412     0.4698     0.1963
A_3     C     0.8401     0.9774     0.8831
A_2     C     0.5177     0.7793     0.449
A_1     C     0.0327     0.6158     0.548
A_1     C     0.372     0.0326     0.5393
A_2     C     0.9141     0.4389     0.1839
A_3     C     0.8304     0.24     0.8306
A_3     C     0.3882     0.4974     0.4319
A_0     C     0.827     0.1147     0.8188
A_0     C     0.242     0.9505     0.8638
A_0     C     0.2414     0.5583     0.4955
A_0     C     0.2931     0.5025     0.8889
A_0     C     0.9997     0.0178     0.5003
A_2     C     0.1926     0.5856     0.6575
A_3     C     0.8004     0.33     0.31
A_3     C     0.5182     0.0146     0.8937
A_0     C     0.1292     0.0851     0.539
A_3     C     0.443     0.2789     0.9117
A_1     C     0.4507     0.6047     0.8547
A_2     C     0.7885     0.4457     0.7617
A_0     C     0.0248     0.3636     0.641
A_1     C     0.183     0.1591     0.7845
A_3     C     0.036     0.7589     0.5182
A_3     C     0.0206     0.8201     0.044
A_2     C     0.6813     0.7675     0.8378
A_0     C     0.8063     0.1823     0.6982
A_1     C     0.8261     0.6175     0.0732
A_3     C     0.6225     0.934     0.7156
A_3     C     0.9954     0.2911     0.6882
A_0     C     0.6124     0.4229     0.2206
A_3     C     0.0167     0.8555     0.801
A_0     C     0.3165     0.5742     0.4848
A_0     C     0.7109     0.8857     0.4637
A_2     C     0.6457     0.3596     0.1537
A_0     C     0.5507     0.8286     0.8664
A_2     C     0.968     0.9998     0.636
A_0     C     0.5576     0.8732     0.6432
A_3     C     0.5281     0.4921     0.4952
A_0     C     0.008     0.3064     0.0247
A_2     C     0.2556     0.6313     0.9306
A_0     C     0.1046     0.9498     0.1012
A_0     C     0.9913     0.6455     0.3516
A_3     C     0.504     0.7564     0.0543
A_0     C     0.8355     0.1033     0.5844
A_3     C     0.1197     0.698     0.3329
A_0     C     0.1425     0.7456     0.5835
A_3     C     0.5868     0.2473     0.3419
A_1     C     0.5321     0.7695     0.5694
A_2     C     0.0257     0.4359     0.6798
A_3     C     0.4403     0.9141     0.2541
A_3     C     0.9627     0.3538     0.4142
A_3     C     0.5716     0.9474     0.8107
A_1     C     0.7738     0.2975     0.3302
A_0     C     0.031     0.3305     0.199
A_2     C     0.0918     0.5959     0.4228
A_3     C     0.5313     0.6225     0.2526
A_1     C     0.2192     0.7307     0.047
A_0     C     0.6341     0.0673     0.2579
A_1     C     0.5824     0.8351     0.4797
A_3     C     0.3659     0.1471     0.8817
A_3     C     0.1412     0.4965     0.7701
A_0     C     0.3429     0.2736     0.7168
A_1     C     0.0945     0.0315     0.1988
A_3     C     0.4012     0.2823     0.0335
A_3     C     0.8417     0.484     0.3058
A_2     C     0.6887     0.3743     0.7774
A_2     C     0.4213     0.2258     0.3325
A_3     C     0.9532     0.0837     0.3815
A_1     C     0.5954     0.2783     0.2767
A_0     C     0.5277     0.6927     0.303
A_0     C     0.3457     0.5532     0.1545
A_2     C     0.5265     0.6684     0.7405
A_1     C     0.2663     0.3794     0.0409
A_1     C     0.7925     0.8003     0.4889
A_0     C     0.963     0.2507     0.2061
A_2     C     0.2131     0.0483     0.8131
A_0     C     0.4715     0.6544     0.1812
A_0     C     0.8401     0.2798     0.5505
A_2     C     0.8458     0.0187     0.378
A_1     C     0.9359     0.7699     0.4862
A_3     C     0.4021     0.1921     0.9882
A_2     C     0.3596     0.6553     0.3074
A_3     C     0.2547     0.3092     0.3322
A_0     C     0.016     0.0575     0.9575
A_0     C     0.327     0.4918     0.1432
A_0     C     0.345     0.8627     0.0429
A_1     C     0.8697     0.7104     0.4917
A_1     C     0.2159     0.5427     0.4164
A_1     C     0.1976     0.7771     0.9078
A_2     C     0.3597     0.403     0.8173
A_0     C     0.0172     0.2357     0.3057
A_0     C     0.7314     0.2152     0.8131
A_3     C     0.7453     0.9927     0.8751
A_2     C     0.0507     0.7573     0.8825
A_1     C     0.5466     0.4013     0.6388
A_1     C     0.2501     0.4589     0.2748
A_0     C     0.6121     0.6255     0.2852
A_2     C     0.3192     0.0413     0.1835
A_0     C     0.5388     0.9399     0.0582
A_0     C     0.9358     0.3569     0.3664
A_2     C     0.6432     0.4001     0.7179
A_0     C     0.7317     0.9259     0.642
A_0     C     0.6942     0.4826     0.2088
A_0     C     0.1735     0.0399     0.343
A_2     C     0.7745     0.0778     0.5219
A_1     C     0.6213     0.1756     0.4353
A_2     C     0.1742     0.1494     0.2199
A_0     C     0.7528     0.873     0.6025
A_3     C     0.3287     0.4844     0.0553
A_1     C     0.6968     0.9513     0.0549
A_2     C     0.6204     0.2454     0.6515
A_1     C     0.0215     0.5036     0.4925
A_1     C     0.5311     0.2282     0.2559
A_1     C     0.0088     0.6471     0.7972
A_3     C     0.1749     0.4433     0.5547
A_0     C     0.8511     0.4706     0.9473
A_0     C     0.9129     0.1946     0.8246
A_0     C     0.9669     0.0781     0.2396
A_3     C     0.3984     0.0079     0.2864
A_2     C     0.0597     0.1603     0.4801
A_1     C     0.4796     0.1827     0.4393
A_0     C     0.662     0.3147     0.9423
A_3     C     0.0917     0.2673     0.4666
A_0     C     0.1454     0.1409     0.265
A_2     C     0.5001     0.1038     0.3811
A_2     C     0.386     0.3122     0.9992
A_3     C     0.0509     0.0385     0.5047
A_2     C     0.8322     0.7413     0.0728
A_2     C     0.055     0.9358     0.8324
A_0     C     0.0685     0.7209     0.6378
A_2     C     0.2845     0.2819     0.3493
A_1     C     0.9303     0.3479     0.7683
A_0     C     0.9984     0.8138     0.8195
A_1     C     0.915     0.3091     0.6397
A_3     C     0.0761     0.4039     0.879
A_2     C     0.5726     0.0324     0.3618
A_2     C     0.4547     0.7232     0.6354
A_0     C     0.8395     0.7856     0.5991
A_3     C     0.9154     0.5987     0.4834
A_3     C     0.4159     0.7487     0.9106
A_0     C     0.4123     0.0048     0.5047
A_1     C     0.5089     0.8766     0.6034
A_2     C     0.1039     0.1396     0.3585
A_1     C     0.9863     0.0123     0.6762
A_0     C     0.5658     0.1435     0.1272
A_2     C     0.0814     0.2203     0.5183
A_0     C     0.6635     0.2705     0.9627
A_0     C     0.2714     0.2499     0.4596
A_1     C     0.5746     0.4905     0.0833
A_1     C     0.0959     0.0677     0.3109
A_2     C     0.2972     0.4236     0.3155
A_2     C     0.9176     0.606     0.1973
A_1     C     0.4214     0.6584     0.1596
A_0     C     0.9617     0.1339     0.3542
A_0     C     0.5473     0.5225     0.3754
A_2     C     0.1855     0.7837     0.228
A_1     C     0.8483     0.2212     0.763
A_3     C     0.2925     0.2898     0.5629
A_3     C     0.5641     0.5972     0.1573
A_1     C     0.0422     0.0242     0.124
A_1     C     0.5861     0.5888     0.0179
A_0     C     0.1128     0.8833     0.7816
A_1     C     0.0581     0.9688     0.3207
A_2     C     0.9504     0.2988     0.6736
A_2     C     0.0646     0.9809     0.3058
A_0     C     0.8833     0.4364     0.5142
A_3     C     0.7826     0.9772     0.3905
A_1     C     0.5769     0.4169     0.1972
A_0     C     0.9893     0.0221     0.7622
A_0     C     0.2781     0.8112     0.801
A_3     C     0.0245     0.1933     0.4473
A_2     C     0.3888     0.8582     0.1537
A_1     C     0.4884     0.9522     0.2636
A_2     C     0.3032     0.6327     0.0215
A_3     C     0.2151     0.0345     0.8797
A_2     C     0.2154     0.5461     0.0651
A_1     C     0.1473     0.8487     0.0976
A_3     C     0.5696     0.6566     0.0027
A_1     C     0.8235     0.9137     0.3918
A_3     C     0.7792     0.7322     0.2823
A_1     C     0.332     0.8937     0.9639
A_1     C     0.7967     0.3139     0.5554
A_2     C     0.8607     0.0137     0.1002
A_2     C     0.7218     0.6613     0.4121
A_2     C     0.5627     0.7878     0.2335
A_2     C     0.8158     0.9937     0.8042
A_3     C     0.5479     0.8824     0.4481
A_3     C     0.5259     0.5655     0.071
A_2     C     0.6475     0.8467     0.2615
A_1     C     0.5308     0.7698     0.8814
A_1     C     0.7035     0.6535     0.1042
A_1     C     0.1255     0.2513     0.9358
A_1     C     0.0458     0.9511     0.6457
A_2     C     0.791     0.4697     0.5651
A_2     C     0.1322     0.7222     0.7696
A_2     C     0.8599     0.873     0.3235
A_0     C     0.8323     0.9127     0.8498
A_1     C     0.0789     0.3395     0.5463
A_3     C     0.5698     0.3617     0.3422
A_1     C     0.463     0.8953     0.6519
A_0     C     0.7144     0.4196     0.1621
A_0     C     0.9102     0.7695     0.5505
A_3     C     0.7202     0.6054     0.5823
A_2     C     0.5687     0.4939     0.3813
A_1     C     0.766     0.1126     0.3481
A_1     C     0.0762     0.6846     0.8588
A_0     C     0.2929     0.2328     0.0455
A_0     C     0.1162     0.6522     0.6365
A_1     C     0.4497     0.4275     0.9667
A_3     C     0.9096     0.4338     0.2717
A_1     C     0.2663     0.0459     0.3891
A_1     C     0.7282     0.38     0.9199
A_1     C     0.7463     0.5095     0.9666
A_2     C     0.1155     0.3678     0.9872
A_3     C     0.1384     0.5276     0.5998
A_0     C     0.4184     0.9495     0.4849
A_3     C     0.2733     0.5401     0.578
A_0     C     0.7898     0.8485     0.3261
A_1     C     0.6517     0.5404     0.3957
A_3     C     0.4847     0.6174     0.7076
A_3     C     0.2277     0.1437     0.0614
A_0     C     0.4545     0.2374     0.0965
A_2     C     0.5366     0.895     0.8128
A_3     C     0.0227     0.1799     0.0405
A_1     C     0.1222     0.3043     0.7866
A_3     C     0.2615     0.0313     0.1704
A_2     C     0.8418     0.5783     0.9712
A_0     C     0.2653     0.9689     0.7934
A_1     C     0.4388     0.9747     0.9661
A_3     C     0.1527     0.7959     0.4639
A_1     C     0.5142     0.4462     0.226
A_2     C     0.8254     0.395     0.6377
A_1     C     0.4481     0.1419     0.4763
A_1     C     0.3293     0.811     0.5453
A_1     C     0.8179     0.7675     0.0763
A_1     C     0.9581     0.5687     0.6842
A_3     C     0.8737     0.7895     0.2741
A_3     C     0.1833     0.3566     0.4935
A_2     C     0.5136     0.3629     0.8647
A_3     C     0.8079     0.7804     0.5633
A_0     C     0.2462     0.7023     0.7938
A_0     C     0.5807     0.1991     0.8495
A_0     C     0.9371     0.0185     0.6819
A_3     C     0.9409     0.6984     0.3726
A_1     C     0.7368     0.2642     0.1692
A_2     C     0.1131     0.6984     0.5001
A_2     C     0.672     0.4936     0.8356
A_2     C     0.7605     0.4016     0.9767
A_2     C     0.6096     0.0476     0.1149
A_2     C     0.8461     0.185     0.4771
A_3     C     0.1137     0.7693     0.2392
A_2     C     0.4166     0.649     0.9137
A_2     C     0.209     0.0239     0.9803
A_1     C     0.2772     0.3623     0.9286
A_0     C     0.491     0.3486     0.4947
A_3     C     0.4994     0.3921     0.076
A_2     C     0.9689     0.2334     0.1967
A_2     C     0.4081     0.3033     0.2433
A_2     C     0.2505     0.6921     0.2818
A_3     C     0.3622     0.5948     0.1934
A_1     C     0.3855     0.8982     0.7723
A_3     C     0.3487     0.848     0.0324
A_0     C     0.9897     0.7076     0.9615
A_3     C     0.384     0.036     0.7602
A_0     C     0.9846     0.5329     0.1184
A_0     C     0.6352     0.4386     0.6139
A_3     C     0.9281     0.1179     0.0546
A_2     C     0.3155     0.7291     0.7756
A_2     C     0.8445     0.5908     0.934
A_3     C     0.3197     0.1706     0.4535
A_1     C     0.1986     0.1341     0.6299
A_1     C     0.5266     0.9704     0.3773
A_0     C     0.9915     0.6764     0.5334
A_3     C     0.5254     0.3342     0.5226
A_1     C     0.5317     0.3658     0.3112
A_2     C     0.3469     0.1056     0.1039
A_0     C     0.1085     0.86     0.6006
A_3     C     0.7505     0.4008     0.9476
A_3     C     0.9626     0.8559     0.1399
A_1     C     0.7628     0.523     0.4224
A_2     C     0.7036     0.4985     0.7783
A_0     C     0.2065     0.6538     0.6706
A_1     C     0.2851     0.0594     0.1131
A_2     C     0.6827     0.4312     0.9932
A_2     C     0.5442     0.3744     0.5813
A_2     C     0.6773     0.4785     0.879
A_1     C     0.0562     0.5589     0.2298
A_0     C     0.7712     0.1893     0.0356
A_2     C     0.9107     0.5689     0.2699
A_2     C     0.9396     0.8456     0.9635
A_3     C     0.344     0.2685     0.9562
A_1     C     0.2194     0.1781     0.6028
A_0     C     0.5694     0.5114     0.8703
A_1     C     0.6974     0.5185     0.0357
A_3     C     0.2059     0.8367     0.7898
A_2     C     0.542     0.7586     0.8996
A_2     C     0.2046     0.4033     0.6307
A_1     C     0.1989     0.7445     0.025
A_1     C     0.8279     0.0628     0.299
A_0     C     0.7303     0.6891     0.1261
A_1     C     0.5266     0.2641     0.3078
A_0     C     0.3401     0.821     0.5334
A_0     C     0.2282     0.1141     0.1481
A_1     C     0.2169     0.1514     0.3757
A_3     C     0.9843     0.3163     0.9766
A_2     C     0.8904     0.483     0.8151
A_1     C     0.6526     0.7366     0.353
A_0     C     0.2663     0.5491     0.2712
A_1     C     0.2929     0.133     0.8619
A_3     C     0.1745     0.8851     0.4838
A_1     C     0.4209     0.0883     0.4158
A_0     C     0.0077     0.6425     0.7317
A_3     C     0.1291     0.7305     0.1696
A_3     C     0.093     0.6084     0.3394
A_3     C     0.8657     0.4541     0.2958
A_0     C     0.2434     0.5621     0.7432
A_2     C     0.4013     0.6294     0.0272
A_3     C     0.837     0.0551     0.3569
A_2     C     0.82     0.3252     0.0939
A_2     C     0.124     0.8156     0.1073
A_1     C     0.9667     0.6292     0.7211
A_2     C     0.1192     0.6635     0.1216
A_1     C     0.6184     0.0665     0.7833
A_2     C     0.1508     0.5256     0.0129
A_0     C     0.0527     0.0383     0.9825
A_2     C     0.5923     0.5384     0.9741
A_1     C     0.7483     0.7395     0.7552
A_0     C     0.1828     0.3906     0.9205
A_2     C     0.4467     0.6995     0.3743
A_0     C     0.1138     0.4127     0.8209
A_3     C     0.6234     0.8317     0.2099
A_1     C     0.5591     0.6337     0.3604
A_0     C     0.5171     0.5294     0.6492
A_1     C     0.1213     0.0371     0.4527
A_2     C     0.5919     0.7368     0.0153
A_0     C     0.8243     0.9939     0.9967
A_1     C     0.9498     0.1011     0.045
A_2     C     0.6953     0.8425     0.411
A_3     C     0.2029     0.697     0.2592
A_1     C     0.5138     0.7777     0.72
A_0     C     0.1449     0.4643     0.6291
A_0     C     0.9774     0.9868     0.0654
A_3     C     0.6463     0.8497     0.6238
A_1     C     0.4618     0.8201     0.0243
A_3     C     0.7001     0.1637     0.5761
A_1     C     0.6753     0.9277     0.2913
A_1     C     0.9432     0.953     0.3035
A_2     C     0.2659     0.2816     0.8107
A_0     C     0.111     0.823     0.9532
A_0     C     0.0736     0.9813     0.0209
A_1     C     0.9402     0.2717     0.7654
A_1     C     0.1013     0.2675     0.3058
A_3     C     0.9518     0.1339     0.3611
A_1     C     0.8015     0.5323     0.5948
A_2     C     0.363     0.6565     0.2052
A_3     C     0.6085     0.3145     0.4436
A_2     C     0.1499     0.3776     0.3147
A_2     C     0.7921     0.3727     0.6572
A_3     C     0.7763     0.8937     0.2397
A_0     C     0.1662     0.5699     0.0867
A_0     C     0.1807     0.9884     0.8744
A_0     C     0.2494     0.9124     0.0195
A_3     C     0.5812     0.9762     0.7493
A_1     C     0.5447     0.6331     0.3818
A_1     C     0.2773     0.3192     0.4168
A_3     C     0.0322     0.7293     0.5745
A_2     C     0.8992     0.1961     0.9545
A_1     C     0.3095     0.3435     0.4675
A_3     C     0.2425     0.5209     0.9935
A_0     C     0.2144     0.4248     0.6967
A_2     C     0.0153     0.6963     0.5605
A_1     C     0.2553     0.2777     0.3394
A_3     C     0.4592     0.2193     0.5702
A_3     C     0.3438     0.9335     0.2111
A_3     C     0.6184     0.3786     0.7169
A_3     C     0.4239     0.2859     0.9293
A_2     C     0.9884     0.7768     0.3102
A_0     C     0.5162     0.2974     0.859
A_2     C     0.8542     0.0209     0.6013
A_0     C     0.7725     0.2895     0.5784
A_1     C     0.2313     0.1283     0.2069
A_1     C     0.0336     0.224     0.7922
A_1     C     0.4262     0.9615     0.5263
A_1     C     0.7798     0.916     0.3128
A_0     C     0.8699     0.7256     0.0186
A_1     C     0.7933     0.8666     0.5565
A_0     C     0.0823     0.5414     0.3013
A_1     C     0.5522     0.7257     0.752
A_0     C     0.6867     0.9158     0.179
A_0     C     0.3737     0.4537     0.2705
A_3     C     0.4987     0.7884     0.1375
A_3     C     0.6265     0.4331     0.8207
A_3     C     0.4173     0.1048     0.2235
A_2     C     0.8158     0.8935     0.1053
A_2     C     0.4006     0.645     0.745
A_3     C     0.2009     0.1077     0.4341
A_2     C     0.6079     0.9217     0.3649
A_2     C     0.253     0.6823     0.1028
A_3     C     0.4347     0.9278     0.6457
A_2     C     0.4209     0.7644     0.8326
A_3     C     0.3084     0.0197     0.3903
A_3     C     0.1794     0.5818     0.2454
A_2     C     0.6946     0.1637     0.5742
A_3     C     0.4045     0.9648     0.7896
A_1     C     0.8725     0.1664     0.233
A_2     C     0.7315     0.0444     0.2376
A_0     C     0.2274     0.2925     0.4978
A_3     C     0.9624     0.6882     0.7081
A_2     C     0.144     0.3724     0.2155
A_1     C     0.8795     0.789     0.613
A_2     C     0.5273     0.2765     0.0418
A_0     C     0.6109     0.9111     0.1106
A_1     C     0.3699     0.0488     0.0049
A_2     C     0.1961     0.8045     0.0555
A_1     C     0.3378     0.4662     0.0813
A_2     C     0.1059     0.1124     0.5066
A_2     C     0.7449     0.4322     0.2776
A_3     C     0.7379     0.1776     0.6701
A_3     C     0.5357     0.2473     0.1926
A_1     C     0.5114     0.2825     0.9242
A_2     C     0.1962     0.9876     0.1676
A_0     C     0.3069     0.8411     0.5079
A_3     C     0.4341     0.1114     0.3904
A_2     C     0.9899     0.2048     0.2278
A_0     C     0.7385     0.587     0.7454
A_1     C     0.5565     0.9627     0.6753
A_3     C     0.4036     0.6242     0.2702
A_2     C     0.6264     0.5006     0.5957
A_2     C     0.7783     0.6939     0.5977
A_0     C     0.4654     0.1133     0.9238
A_2     C     0.5653     0.7425     0.6527
A_1     C     0.6826     0.0838     0.5657
A_3     C     0.7411     0.6963     0.4274
A_1     C     0.0416     0.7054     0.7029
A_3     C     0.0975     0.6292     0.9056
A_1     C     0.2307     0.4836     0.4954
A_3     C     0.8317     0.5576     0.2258
A_0     C     0.2501     0.896     0.2178
A_3     C     0.4233     0.0036     0.3735
A_0     C     0.6452     0.4212     0.5404
A_1     C     0.6626     0.294     0.0015
A_2     C     0.1034     0.3414     0.7685
A_1     C     0.8454     0.9298     0.8703
A_0     C     0.7931     0.5218     0.2474
A_2     C     0.4604     0.7603     0.3911
A_1     C     0.9229     0.9183     0.9382
A_1     C     0.9495     0.5832     0.5677
A_2     C     0.4672     0.2429     0.6913
A_0     C     0.7628     0.2748     0.4249
A_1     C     0.2583     0.9949     0.0193
A_1     C     0.9707     0.4255     0.0832
A_3     C     0.5123     0.8078     0.7469
A_1     C     0.6046     0.965     0.66
A_2     C     0.2361     0.7739     0.4335
A_1     C     0.3916     0.6478     0.6028
A_0     C     0.7771     0.3433     0.2681
A_1     C     0.5742     0.1263     0.8681
A_0     C     0.5808     0.068     0.7627
A_3     C     0.8606     0.287     0.9825
A_3     C     0.6419     0.7865     0.9864
A_3     C     0.9687     0.4396     0.2564
A_3     C     0.4695     0.4728     0.9995
A_1     C     0.2521     0.5235     0.7994
A_0     C     0.0747     0.1869     0.2328
A_3     C     0.5237     0.7172     0.2111
A_3     C     0.3665     0.8101     0.0621
A_2     C     0.1541     0.1036     0.9528
A_0     C     0.6447     0.406     0.3624
A_3     C     0.3039     0.7459     0.0576
A_2     C     0.0987     0.0114     0.6258
A_3     C     0.0823     0.0996     0.8769
A_1     C     0.125     0.6809     0.1481
A_3     C     0.9519     0.0155     0.4732
A_0     C     0.7386     0.7638     0.7837
A_1     C     0.0372     0.2937     0.2333
A_1     C     0.2653     0.3476     0.0508
A_2     C     0.127     0.7068     0.4476
A_0     C     0.8012     0.8423     0.974
A_0     C     0.6722     0.9174     0.1997
A_3     C     0.0661     0.3425     0.3832
A_2     C     0.738     0.4426     0.9284
A_0     C     0.0535     0.2195     0.8157
A_1     C     0.1031     0.8143     0.1999
A_1     C     0.7211     0.8164     0.1012
A_0     C     0.8957     0.9067     0.8976
A_3     C     0.9652     0.243     0.4833
A_3     C     0.0477     0.5578     0.8779
A_0     C     0.1491     0.4224     0.498
A_1     C     0.692     0.956     0.6629
A_0     C     0.4607     0.0052     0.174
A_0     C     0.9323     0.8181     0.0959
A_1     C     0.8429     0.9361     0.1931
A_3     C     0.0334     0.2173     0.6368
A_0     C     0.8143     0.9601     0.5194
A_3     C     0.9997     0.4515     0.366
A_0     C     0.7472     0.2159     0.7535
A_2     C     0.5782     0.2237     0.0975
A_3     C     0.3782     0.4708     0.1903
A_1     C     0.0942     0.8229     0.3584
A_3     C     0.6866     0.4197     0.5102
A_2     C     0.0586     0.5244     0.1207
A_1     C     0.7187     0.1241     0.3814
A_2     C     0.1055     0.1338     0.3057
A_1     C     0.3297     0.3873     0.3637
A_1     C     0.7102     0.7575     0.202
A_0     C     0.3032     0.65     0.2119
A_3     C     0.1999     0.6342     0.6693
A_0     C     0.2918     0.7216     0.3834
A_3     C     0.5218     0.1258     0.5305
A_3     C     0.9028     0.8139     0.1129
A_1     C     0.2694     0.2366     0.9612
A_0     C     0.9421     0.8892     0.7669
A_1     C     0.4672     0.4789     0.7645
A_1     C     0.8279     0.0783     0.3362
A_0     C     0.7645     0.1908     0.9832
A_3     C     0.7646     0.133     0.0005
A_0     C     0.623     0.134     0.2823
A_1     C     0.7488     0.2977     0.2362
A_3     C     0.3953     0.0316     0.5596
A_3     C     0.6087     0.0988     0.3529
A_1     C     0.0392     0.3573     0.4554
A_3     C     0.4902     0.0341     0.3915
A_2     C     0.2162     0.081     0.8476
A_1     C     0.1636     0.44     0.8212
A_3     C     0.244     0.5659     0.8712
A_1     C     0.314     0.6871     0.2962
A_3     C     0.1365     0.654     0.3514
A_1     C     0.9643     0.897     0.2525
A_0     C     0.5257     0.3044     0.4344
A_3     C     0.7229     0.8499     0.0532
A_3     C     0.2422     0.1728     0.8888
A_2     C     0.5966     0.2905     0.9147
A_2     C     0.6788     0.3449     0.58
A_2     C     0.6816     0.3188     0.8683
A_3     C     0.7311     0.9123     0.2427
A_0     C     0.7242     0.8026     0.2697
A_2     C     0.0789     0.4666     0.6983
A_3     C     0.4915     0.4225     0.9455
A_2     C     0.0541     0.9692     0.1766
A_3     C     0.4689     0.2318     0.9032
A_3     C     0.8488     0.1599     0.9262
A_0     C     0.6661     0.6732     0.4529
A_3     C     0.7407     0.963     0.3657
A_1     C     0.5603     0.7775     0.5002
A_1     C     0.7899     0.827     0.7565
A_0     C     0.8834     0.1033     0.9076
A_1     C     0.2866     0.8736     0.0119
A_2     C     0.0321     0.1193     0.1173
A_0     C     0.9173     0.4315     0.2354
A_1     C     0.9524     0.6481     0.9612
A_2     C     0.291     0.7017     0.0652
A_3     C     0.1286     0.0777     0.2818
A_3     C     0.6596     0.2824     0.7961
A_3     C     0.6964     0.506     0.8773
A_3     C     0.3702     0.7774     0.8021
A_2     C     0.0002     0.1306     0.7443
A_1     C     0.4205     0.2565     0.1944
A_0     C     0.2709     0.618     0.6245
A_1     C     0.3576     0.657     0.7202
A_3     C     0.0923     0.1474     0.8542
A_2     C     0.1731     0.6864     0.8397
A_2     C     0.7637     0.337     0.0274
A_1     C     0.4877     0.1209     0.901
A_2     C     0.2882     0.5352     0.8762
A_0     C     0.6252     0.6471     0.5145
A_3     C     0.2685     0.7682     0.9362
A_3     C     0.7286     0.1476     0.4361
A_2     C     0.1194     0.225     0.028
A_1     C     0.3346     0.0335     0.095
A_3     C     0.6583     0.7847     0.3886
A_3     C     0.9659     0.7906     0.0071
A_2     C     0.9289     0.666     0.3936
A_1     C     0.7207     0.7364     0.7857
A_3     C     0.6064     0.0168     0.466
A_3     C     0.4013     0.4141     0.6154
A_2     C     0.4055     0.3699     0.3301
A_2     C     0.9368     0.4359     0.0113
A_0     C     0.5266     0.9845     0.1672
A_0     C     0.9298     0.5688     0.3418
A_3     C     0.7245     0.0486     0.2691
A_3     C     0.7802     0.7193     0.6495
A_1     C     0.8478     0.0064     0.9892
A_2     C     0.2302     0.7104     0.0151
A_3     C     0.85     0.6809     0.6727
A_1     C     0.0668     0.5296     0.9108
A_1     C     0.7722     0.0588     0.9088
A_2     C     0.8481     0.8903     0.6244
A_0     C     0.3121     0.5353     0.7246
A_0     C     0.7419     0.0503     0.4127
A_2     C     0.7941     0.2433     0.941
A_1     C     0.7231     0.8538     0.3184
A_3     C     0.0578     0.5594     0.3254
A_2     C     0.4383     0.1459     0.2167
A_2     C     0.3311     0.9218     0.4123
A_3     C     0.8845     0.4366     0.7652
A_0     C     0.665     0.2773     0.443
A_3     C     0.1996     0.159     0.0559
A_0     C     0.9317     0.0277     0.0143
A_2     C     0.9137     0.8048     0.0367
A_2     C     0.1119     0.6663     0.5727
A_3     C     0.7878     0.0915     0.6131
A_3     C     0.9873     0.9198     0.6147
A_1     C     0.4666     0.0225     0.0385
A_3     C     0.3159     0.859     0.579
A_1     C     0.3923     0.7042     0.0056
A_2     C     0.2715     0.0221     0.2225
A_3     C     0.2715     0.4307     0.8139
A_1     C     0.445     0.5731     0.2496
A_1     C     0.7029     0.5909     0.3575
A_3     C     0.1099     0.1673     0.2835
A_3     C     0.4726     0.3859     0.477
A_0     C     0.136     0.8942     0.5092
A_2     C     0.7379     0.0435     0.1017
A_1     C     0.3251     0.9307     0.2182
A_0     C     0.2501     0.6104     0.661
A_3     C     0.6405     0.6001     0.416
A_2     C     0.9861     0.9246     0.0369
A_3     C     0.9473     0.702     0.8306
A_2     C     0.2294     0.3912     0.9962
A_2     C     0.7188     0.3352     0.9178
A_3     C     0.6134     0.1088     0.9304
A_2     C     0.0999     0.6571     0.4178
A_0     C     0.916     0.3719     0.724
A_3     C     0.0756     0.9987     0.986
A_0     C     0.7186     0.6242     0.3525
A_1     C     0.1536     0.1551     0.7851
A_0     C     0.326     0.2349     0.9376
A_2     C     0.039     0.7129     0.2307
A_1     C     0.5162     0.8661     0.8562
A_0     C     0.8312     0.7006     0.6645
A_1     C     0.837     0.0101     0.8158
A_0     C     0.7249     0.0154     0.8952
A_1     C     0.7973     0.4617     0.0131
A_1     C     0.0643     0.3439     0.8175
A_2     C     0.1171     0.6906     0.6823
A_2     C     0.2873     0.0302     0.3605
A_0     C     0.3532     0.9676     0.0455
A_1     C     0.7324     0.6667     0.5065
A_3     C     0.1502     0.7172     0.3848
A_1     C     0.5237     0.5677     0.8565
A_0     C     0.4792     0.3514     0.6883
A_1     C     0.7553     0.6423     0.0819
A_2     C     0.4967     0.8494     0.695
A_3     C     0.6986     0.9511     0.0975
A_2     C     0.2962     0.5862     0.1008
A_0     C     0.8074     0.6165     0.6653
A_1     C     0.9671     0.0569     0.752
A_2     C     0.082     0.4474     0.8011
A_0     C     0.2719     0.3111     0.0974
A_3     C     0.4622     0.6314     0.729
A_0     C     0.6276     0.829     0.2582
A_1     C     0.3967     0.4969     0.2459
A_3     C     0.4081     0.0503     0.7979
A_2     C     0.4636     0.1406     0.0738
A_1     C     0.4467     0.2431     0.3743
A_1     C     0.9613     0.2822     0.4894
A_1     C     0.1298     0.0716     0.9495
A_1     C     0.7253     0.4139     0.6299
A_1     C     0.5909     0.9092     0.9355
A_2     C     0.6632     0.1966     0.0525
A_2     C     0.1063     0.4906     0.9381
A_2     C     0.9294     0.6383     0.7157
A_3     C     0.3552     0.7588     0.5381
A_1     C     0.1149     0.2464     0.7947
A_0     C     0.2271     0.2334     0.7976
A_3     C     0.2626     0.0192     0.1353
A_3     C     0.1204     0.8403     0.7323
A_1     C     0.04     0.6907     0.2421
A_1     C     0.3327     0.3054     0.7566
A_0     C     0.6871     0.284     0.4131
A_1     C     0.2679     0.6693     0.376
A_3     C     0.1511     0.3807     0.7453
A_2     C     0.0392     0.6563     0.8841
A_3     C     0.7622     0.2169     0.877
A_0     C     0.51     0.4439     0.8089
A_2     C     0.0012     0.7389     0.8444
A_3     C     0.2524     0.6538     0.7076
A_1     C     0.6805     0.0368     0.7171
A_0     C     0.7533     0.0047     0.9844
A_2     C     0.8489     0.1368     0.5838
A_1     C     0.335     0.5567     0.0419
A_1     C     0.9331     0.728     0.8044
A_2     C     0.206     0.866     0.7832
A_2     C     0.4361     0.5257     0.975
A_2     C     0.7021     0.0703     0.9903
A_0     C     0.2037     0.0883     0.7527
A_2     C     0.3299     0.2055     0.0638
A_0     C     0.13     0.2164     0.7358
A_1     C     0.4822     0.4822     0.5697
A_0     C     0.7007     0.5805     0.5064
A_1     C     0.0407     0.8019     0.6243
A_0     C     0.0241     0.6719     0.1577
A_0     C     0.9194     0.813     0.8905
A_1     C     0.4416     0.2297     0.8433
A_3     C     0.1136     0.618     0.3165
A_0     C     0.4907     0.6121     0.7776
A_0     C     0.8216     0.0198     0.5563
A_1     C     0.7726     0.8703     0.3035
A_2     C     0.9182     0.0656     0.1914
A_1     C     0.599     0.5733     0.8408
A_2     C     0.5293     0.7665     0.2976
A_1     C     0.3466     0.2284     0.0584
A_1     C     0.8477     0.0099     0.3999
A_3     C     0.1656     0.7709     0.5512
A_0     C     0.3623     0.5098     0.5984
A_0     C     0.092     0.5703     0.9406
A_2     C     0.6022     0.9353     0.4559
A_0     C     0.9682     0.8268     0.1296
A_2     C     0.2133     0.7649     0.6267
A_3     C     0.9888     0.7852     0.978
A_1     C     0.9841     0.7427     0.4752
A_3     C     0.6907     0.8034     0.4029
A_3     C     0.0884     0.146     0.3155
A_0     C     0.6062     0.0913     0.2221
A_2     C     0.5418     0.2049     0.076
A_2     C     0.1256     0.8589     0.3073
A_2     C     0.0759     0.9782     0.9562
A_1     C     0.1073     0.5066     0.4385
A_0     C     0.3417     0.3736     0.9773
A_3     C     0.0462     0.7071     0.0776
A_2     C     0.5588     0.4244     0.9494
A_1     C     0.882     0.7448     0.9378
A_2     C     0.9479     0.9976     0.618
A_2     C     0.92     0.1079     0.1089
A_3     C     0.0556     0.3823     0.5724
A_0     C     0.7612     0.217     0.2665
A_2     C     0.2571     0.0769     0.5875
A_1     C     0.3772     0.5705     0.4114
A_0     C     0.765     0.7627     0.857
A_0     C     0.2958     0.9057     0.3327
A_3     C     0.1108     0.4758     0.2192
A_1     C     0.9735     0.5223     0.373
A_2     C     0.48     0.3352     0.1922
A_3     C     0.8093     0.9412     0.3231
A_0     C     0.0965     0.8913     0.2464
A_0     C     0.1993     0.9614     0.5326
A_0     C     0.804     0.8571     0.7691
A_1     C     0.9524     0.4957     0.9315
A_3     C     0.1158     0.6722     0.9215
A_2     C     0.3647     0.7174     0.1035
A_1     C     0.7714     0.7984     0.4404
A_2     C     0.7876     0.1722     0.1268
A_3     C     0.0235     0.7204     0.2413
A_1     C     0.0886     0.8729     0.7507
A_3     C     0.6762     0.6461     0.8141
A_2     C     0.6721     0.9829     0.5533
A_1     C     0.3783     0.358     0.7861
A_3     C     0.9965     0.1605     0.9943
A_2     C     0.6177     0.7037     0.3219
A_0     C     0.3609     0.6579     0.0472
A_0     C     0.6779     0.0836     0.9387
A_0     C     0.2399     0.9361     0.9224
A_1     C     0.5046     0.1369     0.6862
A_1     C     0.4433     0.8326     0.9473
A_0     C     0.3133     0.2304     0.5651
A_1     C     0.7299     0.9632     0.4531
A_1     C     0.2555     0.0948     0.1303
A_3     C     0.2478     0.3858     0.124
A_1     C     0.8948     0.6009     0.6466
A_3     C     0.7068     0.3278     0.539
A_1     C     0.6028     0.3851     0.893
A_2     C     0.2843     0.2683     0.0101
A_0     C     0.6133     0.3256     0.1359
A_3     C     0.2932     0.2041     0.8708
A_2     C     0.6413     0.2426     0.9915
A_3     C     0.9216     0.7633     0.2427
A_3     C     0.5929     0.4043     0.3622
A_1     C     0.5683     0.7794     0.1197
A_1     C     0.9024     0.232     0.0758
A_3     C     0.7734     0.7618     0.3648
A_2     C     0.4517     0.8048     0.577
A_1     C     0.8008     0.4805     0.9749
A_0     C     0.9719     0.6341     0.881
A_1     C     0.109     0.6353     0.1861
A_1     C     0.0461     0.5627     0.9045
A_2     C     0.8152     0.6262     0.9696
A_2     C     0.2243     0.4292     0.1055
A_3     C     0.3647     0.4428     0.065
A_1     C     0.7376     0.0508     0.9106
A_2     C     0.8745     0.3236     0.0084
A_1     C     0.4893     0.335     0.0797
A_1     C     0.3139     0.1851     0.1806
A_0     C     0.029     0.9511     0.8819
A_1     C     0.5181     0.3559     0.4925
A_3     C     0.9592     0.6954     0.5338
A_1     C     0.7515     0.4903     0.2653
A_3     C     0.1124     0.5164     0.422
A_0     C     0.7985     0.4711     0.6101
A_0     C     0.8846     0.3029     0.5791
A_1     C     0.8013     0.6045     0.8201
A_1     C     0.2991     0.2902     0.3272
A_1     C     0.581     0.3376     0.5732
A_1     C     0.1917     0.7267     0.1418
A_0     C     0.1687     0.3002     0.666
A_1     C     0.4095     0.4081     0.2672
A_0     C     0.7401     0.6775     0.7793
A_3     C     0.2156     0.3528     0.8873
A_0     C     0.2808     0.6275     0.5062
A_2     C     0.0165     0.8456     0.642
A_0     C     0.3108     0.4312     0.1643
A_0     C     0.5077     0.8857     0.1475
A_3     C     0.5615     0.281     0.2749
A_3     C     0.3245     0.8854     0.1769
A_0     C     0.7258     0.9264     0.3084
A_0     C     0.9825     0.3852     0.6153
A_3     C     0.6812     0.5556     0.0622
A_2     C     0.1866     0.3853     0.2121
A_2     C     0.7028     0.5098     0.2737
A_1     C     0.1588     0.7508     0.528
A_3     C     0.5777     0.1313     0.731
A_0     C     0.6249     0.9553     0.9615
A_3     C     0.7178     0.2996     0.8462
A_2     C     0.219     0.7082     0.3597
A_3     C     0.1927     0.6942     0.5292
A_1     C     0.7203     0.3512     0.5466
A_2     C     0.022     0.8344     0.2614
A_3     C     0.2461     0.9868     0.7637
A_3     C     0.8623     0.7744     0.299
A_1     C     0.7598     0.7505     0.1102
A_3     C     0.9623     0.4619     0.451
A_3     C     0.944     0.4421     0.6453
A_0     C     0.1315     0.9964     0.0367
A_3     C     0.9002     0.1895     0.3222
A_2     C     0.9866     0.091     0.1958
A_1     C     0.8958     0.1084     0.4509
A_0     C     0.8622     0.1339     0.1709
A_3     C     0.7472     0.2763     0.1631
A_2     C     0.4304     0.036     0.8911
A_1     C     0.9814     0.2107     0.2238
A_0     C     0.983     0.963     0.1939
A_1     C     0.758     0.7054     0.4552
A_0     C     0.3114     0.5507     0.4772
A_2     C     0.4244     0.3566     0.2731
A_3     C     0.4196     0.8043     0.1174
A_3     C     0.9763     0.5261     0.706
A_0     C     0.7537     0.4157     0.9891
A_3     C     0.0028     0.989     0.7888
A_3     C     0.2379     0.5885     0.0978
A_0     C     0.9704     0.2037     0.277
A_3     C     0.4244     0.0045     0.8806
A_1     C     0.2513     0.3006     0.2188
A_0     C     0.7918     0.5923     0.9005
A_0     C     0.4956     0.0958     0.1037
A_0     C     0.5855     0.0828     0.3032
A_1     C     0.3374     0.6135     0.813
A_0     C     0.9367     0.4953     0.4556
A_2     C     0.6511     0.2357     0.0616
A_0     C     0.6651     0.4749     0.0468
A_1     C     0.3378     0.3139     0.6597
A_2     C     0.1099     0.6765     0.6753
A_0     C     0.6663     0.0887     0.9075
A_2     C     0.6939     0.9358     0.9554
A_0     C     0.5378     0.9137     0.2595
A_1     C     0.8787     0.2676     0.4331
A_2     C     0.4693     0.3204     0.2544
A_1     C     0.6175     0.5516     0.9728
A_1     C     0.3247     0.8676     0.3631
A_1     C     0.721     0.7907     0.173
A_3     C     0.9051     0.8457     0.3009
A_1     C     0.9138     0.0267     0.9933
A_1     C     0.3084     0.7984     0.5818
A_0     C     0.3529     0.1596     0.988
A_0     C     0.9789     0.987     0.3006
A_3     C     0.1108     0.5285     0.1092
A_0     C     0.9801     0.3841     0.1442
A_2     C     0.0769     0.8724     0.2865
A_3     C     0.1244     0.545     0.3728
A_0     C     0.8777     0.0572     0.4452
A_1     C     0.4257     0.8584     0.1234
A_2     C     0.4141     0.253     0.7978
A_2     C     0.2976     0.4329     0.5279
A_2     C     0.4423     0.2752     0.4364
A_2     C     0.47     0.3572     0.9692
A_3     C     0.5699     0.0171     0.9807
A_2     C     0.8175     0.7033     0.033
A_2     C     0.2566     0.1777     0.6536
A_2     C     0.6961     0.7766     0.401
A_2     C     0.8564     0.5233     0.4711
A_1     C     0.9172     0.3843     0.4776
A_2     C     0.4973     0.0864     0.2513
A_2     C     0.1931     0.428     0.8023
A_0     C     0.5945     0.0482     0.2389
A_1     C     0.5774     0.502     0.9116
A_0     C     0.2452     0.5319     0.796
A_3     C     0.6106     0.6681     0.4036
A_0     C     0.4225     0.7255     0.7735
A_3     C     0.9562     0.1443     0.0366
A_2     C     0.3778     0.8339     0.9852
A_3     C     0.6441     0.995     0.0759
A_2     C     0.2215     0.9467     0.8276
A_1     C     0.1745     0.1862     0.2203
A_2     C     0.4482     0.3033     0.0802
A_1     C     0.8364     0.3813     0.9595
A_0     C     0.7581     0.6536     0.6669
A_3     C     0.0653     0.8317     0.0693
A_3     C     0.983     0.0393     0.6587
A_1     C     0.5592     0.5859     0.6822
A_3     C     0.8385     0.2194     0.0706
A_2     C     0.4607     0.7477     0.7595
A_3     C     0.2917     0.1677     0.9374
A_2     C     0.1619     0.3241     0.5922
A_1     C     0.5873     0.2402     0.7171
A_1     C     0.6798     0.0598     0.8001
A_0     C     0.3733     0.941     0.8563
A_3     C     0.3441     0.0014     0.0057
A_0     C     0.9247     0.6567     0.5141
A_0     C     0.27     0.7176     0.8961
A_1     C     0.8981     0.9816     0.0091
A_0     C     0.3236     0.1816     0.575
A_1     C     0.5841     0.5339     0.7453
A_1     C     0.143     0.4984     0.8913
A_1     C     0.5732     0.7949     0.5214
A_2     C     0.8143     0.5569     0.8808
A_1     C     0.3347     0.2155     0.0838
A_2     C     0.2981     0.8547     0.1175
A_2     C     0.478     0.1861     0.5345
A_2     C     0.9788     0.8579     0.9967
A_0     C     0.2586     0.1922     0.5378
A_3     C     0.384     0.1156     0.7103
A_3     C     0.4574     0.4594     0.0089
A_0     C     0.7468     0.6728     0.544
A_2     C     0.1253     0.0491     0.5792
A_0     C     0.5538     0.3717     0.6452
A_3     C     0.1261     0.3901     0.1006
A_2     C     0.0566     0.1904     0.675
A_3     C     0.2476     0.2922     0.9071
A_1     C     0.9225     0.7956     0.1156
A_2     C     0.1212     0.6139     0.3615
A_0     C     0.7715     0.6913     0.615
A_3     C     0.6731     0.4758     0.9009
A_1     C     0.7447     0.0482     0.4501
A_2     C     0.088     0.2837     0.2862
A_1     C     0.1419     0.8044     0.7263
A_0     C     0.1475     0.2935     0.454
A_1     C     0.1446     0.2035     0.1034
A_1     C     0.2876     0.6802     0.8893
A_1     C     0.1317     0.7311     0.909
A_0     C     0.4783     0.0144     0.1875
A_0     C     0.0642     0.9229     0.2549
A_1     C     0.7884     0.6407     0.4595
A_1     C     0.3494     0.5657     0.3991
A_2     C     0.7442     0.5168     0.9915
A_2     C     0.6407     0.5686     0.604
A_2     C     0.0299     0.5078     0.7048
A_3     C     0.1914     0.7703     0.4077
A_0     C     0.644     0.5799     0.7609
A_3     C     0.6419     0.9226     0.6216
A_3     C     0.6466     0.287     0.566
A_3     C     0.1225     0.7694     0.5837
A_1     C     0.7187     0.8559     0.7498
A_1     C     0.1665     0.6641     0.3351
A_2     C     0.0443     0.1729     0.0031
A_1     C     0.9161     0.9024     0.8246
A_1     C     0.6659     0.0099     0.3321
A_0     C     0.6426     0.9452     0.1045
A_3     C     0.7067     0.9034     0.5212
A_0     C     0.2611     0.7965     0.4807
A_3     C     0.4118     0.7112     0.8199
A_3     C     0.3705     0.425     0.8476
A_3     C     0.246     0.716     0.7531
A_1     C     0.3495     0.7159     0.2716
A_2     C     0.6559     0.6758     0.3751
A_0     C     0.2697     0.9694     0.5764
A_2     C     0.2715     0.6687     0.9411
A_2     C     0.0384     0.1557     0.8792
A_3     C     0.8045     0.0994     0.1131
A_2     C     0.1439     0.371     0.9034
A_1     C     0.4288     0.2799     0.96
A_2     C     0.2038     0.3417     0.6267
A_2     C     0.8163     0.9326     0.0377
A_1     C     0.9683     0.1705     0.1588
A_3     C     0.6128     0.4961     0.7173
A_1     C     0.7246     0.8972     0.3222
A_1     C     0.8469     0.3238     0.4889
A_1     C     0.7031     0.9935     0.3226
A_0     C     0.1408     0.7879     0.9185
A_1     C     0.283     0.5864     0.5879
A_2     C     0.3548     0.8969     0.7022
A_3     C     0.4165     0.0393     0.5472
A_3     C     0.6941     0.6884     0.6941
A_1     C     0.2505     0.5226     0.8902
A_1     C     0.1626     0.1693     0.7471
A_3     C     0.2601     0.3335     0.3867
A_3     C     0.0613     0.4837     0.2759
A_2     C     0.5834     0.6342     0.595
A_2     C     0.994     0.5519     0.566
A_0     C     0.2144     0.7679     0.4437
A_0     C     0.9265     0.0858     0.9202
A_1     C     0.676     0.0352     0.6683
A_3     C     0.2607     0.2206     0.012
A_2     C     0.4601     0.7742     0.5129
A_3     C     0.2728     0.1007     0.678
A_3     C     0.1469     0.5987     0.6754
A_1     C     0.5085     0.8909     0.6018
A_1     C     0.4606     0.6697     0.2777
A_3     C     0.5385     0.5404     0.8247
A_3     C     0.9109     0.548     0.6691
A_2     C     0.2652     0.5777     0.4175
A_0     C     0.953     0.1506     0.0366
A_3     C     0.624     0.8359     0.9914
A_1     C     0.1977     0.2583     0.1387
A_1     C     0.513     0.7462     0.0768
A_3     C     0.3971     0.8046     0.524
A_3     C     0.2038     0.5937     0.1429
A_3     C     0.9918     0.4466     0.3661
A_2     C     0.5101     0.0603     0.2906
A_0     C     0.2991     0.447     0.1791
A_3     C     0.6611     0.5413     0.7834
A_1     C     0.1778     0.4062     0.8051
A_0     C     0.7998     0.1908     0.5574
A_3     C     0.71     0.2428     0.8749
A_2     C     0.8077     0.1911     0.4217
A_1     C     0.8801     0.2657     0.1919
A_1     C     0.2954     0.6204     0.0122
A_3     C     0.7967     0.1616     0.7307
A_1     C     0.3012     0.8985     0.7593
A_2     C     0.2868     0.2928     0.3625
A_0     C     0.7699     0.3658     0.0471
A_2     C     0.9819     0.2478     0.6227
A_2     C     0.3014     0.8752     0.522
A_0     C     0.6784     0.6736     0.4338
A_2     C     0.1864     0.9483     0.499
A_2     C     0.3944     0.8305     0.5271
A_1     C     0.2385     0.2578     0.085
A_0     C     0.0025     0.2058     0.0401
A_1     C     0.775     0.2169     0.549
A_1     C     0.0102     0.788     0.2763
A_2     C     0.4189     0.5825     0.8761
A_2     C     0.6953     0.8282     0.1134
A_3     C     0.5528     0.4262     0.2181
A_3     C     0.3272     0.2946     0.3308
A_0     C     0.1296     0.3526     0.6693
A_3     C     0.9206     0.4203     0.1618
A_0     C     0.9233     0.2915     0.8586
A_3     C     0.1274     0.3212     0.6832
A_2     C     0.3293     0.3162     0.2645
A_2     C     0.4495     0.5668     0.4103
A_1     C     0.9524     0.6879     0.1703
A_2     C     0.4651     0.9973     0.0625
A_0     C     0.2365     0.0838     0.3954
A_3     C     0.9719     0.3396     0.1745
A_1     C     0.7405     0.9716     0.5036
A_1     C     0.655     0.1584     0.5617
A_3     C     0.4496     0.7258     0.2736
A_1     C     0.3125     0.1303     0.4257
A_1     C     0.0798     0.3571     0.8892
A_1     C     0.4755     0.7363     0.1929
A_2     C     0.9913     0.4948     0.8962
A_0     C     0.3951     0.4169     0.7931
A_2     C     0.9169     0.4011     0.4913
A_0     C     0.2366     0.8275     0.2174
A_0     C     0.5315     0.6793     0.0674
A_1     C     0.2767     0.9123     0.4307
A_0     C     0.2061     0.7591     0.8944
A_1     C     0.5237     0.002     0.8946
A_1     C     0.5665     0.3432     0.5084
A_2     C     0.2449     0.6032     0.893
A_0     C     0.5338     0.9489     0.4715
A_2     C     0.2714     0.8319     0.2981
A_1     C     0.3344     0.4189     0.0558
A_0     C     0.598     0.0885     0.0504
A_0     C     0.3973     0.2659     0.4317
A_0     C     0.4002     0.0097     0.5002
A_2     C     0.3116     0.7138     0.2602
A_2     C     0.2487     0.4193     0.9754
A_1     C     0.6658     0.632     0.7606
A_0     C     0.0586     0.8375     0.2092
A_2     C     0.6842     0.1582     0.8586
A_2     C     0.202     0.2869     0.6059
A_3     C     0.2909     0.4549     0.8745
A_0     C     0.2651     0.5917     0.4359
A_3     C     0.5309     0.7583     0.1729
A_3     C     0.3573     0.4944     0.0226
A_3     C     0.1752     0.2636     0.6809
A_3     C     0.561     0.2451     0.5223
A_2     C     0.5017     0.4692     0.9203
A_1     C     0.91     0.5161     0.7381
A_0     C     0.8005     0.3409     0.3735
A_0     C     0.2543     0.0278     0.4821
A_1     C     0.6415     0.998     0.6072
A_3     C     0.1603     0.2132     0.8501
A_3     C     0.6175     0.9077     0.8606
A_0     C     0.295     0.0635     0.6427
A_1     C     0.0742     0.2158     0.3853
A_3     C     0.2258     0.0357     0.9027
A_0     C     0.8889     0.2171     0.1089
A_2     C     0.4474     0.6346     0.7007
A_2     C     0.1399     0.3833     0.8369
A_0     C     0.481     0.8922     0.9833
A_1     C     0.9956     0.1111     0.6965
A_2     C     0.2275     0.0409     0.11
A_1     C     0.5351     0.2789     0.8469
A_3     C     0.8933     0.4265     0.3971
A_0     C     0.4053     0.9697     0.6561
A_0     C     0.7264     0.1528     0.931
A_0     C     0.0167     0.4462     0.4409
A_1     C     0.0863     0.3933     0.1531
A_3     C     0.8836     0.967     0.0115
A_0     C     0.4365     0.9231     0.2737
A_1     C     0.1555     0.4703     0.1944
A_3     C     0.8482     0.8002     0.132
A_1     C     0.5112     0.0744     0.4846
A_0     C     0.3908     0.2631     0.1245
A_0     C     0.4593     0.08     0.0189
A_0     C     0.0477     0.318     0.6184
A_3     C     0.4032     0.6543     0.0302
A_2     C     0.6756     0.9761     0.8897
A_3     C     0.155     0.2428     0.0651
A_0     C     0.8313     0.4703     0.6176
A_3     C     0.441     0.8423     0.5906
A_0     C     0.5602     0.2641     0.9785
A_0     C     0.6252     0.0224     0.9486
A_2     C     0.3532     0.2857     0.0657
A_3     C     0.1151     0.3263     0.0841
A_0     C     0.5989     0.4913     0.9846
A_3     C     0.2338     0.8688     0.6026
A_2     C     0.2546     0.1866     0.5336
A_1     C     0.724     0.0057     0.2698
A_0     C     0.3622     0.7952     0.0982
A_0     C     0.4297     0.54     0.6544
A_0     C     0.4894     0.0126     0.2175
A_2     C     0.8094     0.9352     0.4217
A_3     C     0.5479     0.1576     0.8171
A_1     C     0.1906     0.4026     0.0643
A_1     C     0.9174     0.6151     0.8425
A_0     C     0.5067     0.1531     0.7743
A_3     C     0.6568     0.7833     0.1385
A_0     C     0.0083     0.8786     0.1072
A_3     C     0.0521     0.9521     0.0997
A_0     C     0.1734     0.895     0.1584
A_3     C     0.3539     0.642     0.3708
A_0     C     0.1772     0.2396     0.0088
A_0     C     0.9798     0.874     0.4096
A_0     C     0.2304     0.8604     0.8552
A_2     C     0.1135     0.9172     0.7556
A_1     C     0.5538     0.5141     0.808
A_0     C     0.1332     0.3416     0.059
A_1     C     0.3214     0.148     0.6771
A_1     C     0.4175     0.1026     0.3876
A_2     C     0.2281     0.8508     0.7343
A_3     C     0.2056     0.4428     0.9546
A_3     C     0.2947     0.2377     0.6514
A_2     C     0.3673     0.4692     0.2717
A_0     C     0.3325     0.0039     0.2978
A_0     C     0.5535     0.5282     0.3359
A_2     C     0.4461     0.6055     0.3896
A_1     C     0.7741     0.3966     0.2697
A_3     C     0.0135     0.1732     0.2275
A_2     C     0.2338     0.8586     0.2312
A_0     C     0.956     0.2779     0.1852
A_0     C     0.241     0.9835     0.1192
A_3     C     0.4392     0.8575     0.6574
A_0     C     0.657     0.2959     0.528
A_3     C     0.4144     0.6984     0.8184
A_3     C     0.104     0.3753     0.4493
A_0     C     0.0304     0.7488     0.2916
A_1     C     0.4118     0.4224     0.1164
A_3     C     0.3554     0.3955     0.9131
A_2     C     0.1346     0.0404     0.0958
A_2     C     0.2152     0.1281     0.2895
A_0     C     0.6795     0.8847     0.7803
A_1     C     0.8053     0.0987     0.2563
A_0     C     0.3355     0.4655     0.6754
A_2     C     0.1242     0.0052     0.4728
A_2     C     0.2383     0.857     0.4844
A_3     C     0.8516     0.6756     0.7283
A_0     C     0.4084     0.0263     0.0347
A_0     C     0.6031     0.4036     0.3964
A_2     C     0.7433     0.0457     0.8408
A_2     C     0.0621     0.0177     0.4009
A_3     C     0.0458     0.3534     0.3308
A_1     C     0.3418     0.3183     0.3678
A_0     C     0.9816     0.129     0.6002
A_3     C     0.2092     0.3824     0.8437
A_1     C     0.5644     0.0222     0.8614
A_0     C     0.1036     0.4476     0.4621
A_2     C     0.0069     0.0916     0.7473
A_2     C     0.6788     0.545     0.4204
A_0     C     0.1591     0.6339     0.1657
A_3     C     0.9541     0.3766     0.6648
A_2     C     0.0573     0.8904     0.9181
A_0     C     0.8516     0.1195     0.3925
A_3     C     0.0749     0.8311     0.5135
A_0     C     0.2252     0.6754     0.816
A_1     C     0.2267     0.6431     0.4375
A_0     C     0.8413     0.1143     0.647
A_1     C     0.7458     0.6228     0.9404
A_2     C     0.6035     0.8079     0.5898
A_2     C     0.3924     0.0066     0.2035
A_0     C     0.8876     0.0296     0.2825
A_3     C     0.3978     0.3192     0.9674
A_2     C     0.6436     0.7699     0.655
A_2     C     0.8165     0.619     0.2892
A_0     C     0.7148     0.7433     0.6946
A_1     C     0.8767     0.6072     0.8916
A_3     C     0.4745     0.1508     0.8789
A_0     C     0.2776     0.8614     0.5763
A_0     C     0.1921     0.146     0.2603
A_3     C     0.4209     0.8244     0.071
A_1     C     0.1132     0.3441     0.5368
A_3     C     0.2205     0.5567     0.8561
A_2     C     0.9295     0.4756     0.5196
A_2     C     0.6276     0.0839     0.0044
A_2     C     0.477     0.0881     0.8678
A_1     C     0.6509     0.9421     0.4545
A_3     C     0.05     0.0846     0.9379
A_3     C     0.0847     0.3945     0.6378
A_1     C     0.929     0.2601     0.6298
A_2     C     0.7831     0.3387     0.7475
A_2     C     0.9316     0.4871     0.4882
A_3     C     0.1145     0.5358     0.9045
A_0     C     0.3639     0.9841     0.4714
A_1     C     0.6693     0.2638     0.3893
A_3     C     0.6682     0.3219     0.7573
A_3     C     0.9241     0.7842     0.1196
A_0     C     0.8978     0.8892     0.8516
A_0     C     0.9755     0.1173     0.85
A_0     C     0.0032     0.9575     0.3559
A_2     C     0.2185     0.1987     0.9068
A_3     C     0.3164     0.7073     0.6424
A_1     C     0.6608     0.0448     0.7291
A_3     C     0.7012     0.482     0.1057
A_2     C     0.5106     0.3439     0.4529
A_0     C     0.3979     0.1835     0.3467
A_0     C     0.4491     0.1918     0.6017
A_0     C     0.494     0.2548     0.3895
A_0     C     0.0103     0.4603     0.2599
A_1     C     0.6887     0.2177     0.6283
A_3     C     0.7446     0.5939     0.2118
A_1     C     0.6163     0.8391     0.6345
A_2     C     0.6405     0.052     0.5301
A_2     C     0.3564     0.9677     0.9373
A_2     C     0.1462     0.5524     0.3257
A_0     C     0.7909     0.1782     0.0112
A_3     C     0.6853     0.7557     0.7483
A_2     C     0.5516     0.3673     0.738
A_1     C     0.111     0.585     0.4952
A_0     C     0.8001     0.624     0.459
A_3     C     0.7184     0.22     0.944
A_0     C     0.5903     0.9944     0.3251
A_2     C     0.9401     0.2933     0.2861
A_3     C     0.897     0.0695     0.8022
A_3     C     0.4757     0.1122     0.1421
A_3     C     0.8702     0.552     0.526
A_3     C     0.2879     0.3647     0.0609
A_1     C     0.925     0.7664     0.3682
A_3     C     0.0348     0.4005     0.9032
A_2     C     0.798     0.5984     0.194
A_3     C     0.5444     0.5522     0.611
A_2     C     0.4319     0.4744     0.9207
A_2     C     0.9624     0.8494     0.2808
A_2     C     0.09     0.9139     0.0951
A_2     C     0.0661     0.1914     0.5272
A_0     C     0.076     0.5395     0.7011
A_2     C     0.2951     0.9809     0.2612
A_0     C     0.8595     0.6446     0.5516
A_3     C     0.2604     0.2152     0.2129
A_0     C     0.8048     0.8869     0.7661
A_0     C     0.3228     0.0414     0.1819
A_3     C     0.5216     0.5778     0.0923
A_3     C     0.4791     0.5731     0.1256
A_0     C     0.5988     0.6046     0.2669
A_3     C     0.3094     0.2236     0.5241
A_2     C     0.8298     0.5493     0.6118
A_0     C     0.149     0.9971     0.3687
A_0     C     0.8539     0.5402     0.7955
A_0     C     0.9865     0.5124     0.5935
A_0     C     0.4419     0.4085     0.2678
A_1     C     0.5162     0.4323     0.502
A_0     C     0.8053     0.98     0.1976
A_1     C     0.5874     0.2328     0.7736
A_3     C     0.6482     0.5308     0.1751
A_3     C     0.3086     0.2429     0.6076
A_1     C     0.8357     0.3577     0.6372
A_1     C     0.5316     0.1067     0.4089
A_0     C     0.9992     0.9599     0.1037
A_1     C     0.074     0.7748     0.6194
A_2     C     0.6344     0.3287     0.8632
A_0     C     0.9593     0.0242     0.3441
A_0     C     0.2338     0.7013     0.3397
A_2     C     0.8058     0.3659     0.0516
A_2     C     0.9887     0.9921     0.9168
A_3     C     0.3355     0.4916     0.1101
A_3     C     0.4572     0.0896     0.2547
A_0     C     0.8804     0.3294     0.8434
A_0     C     0.3706     0.3868     0.8919
A_2     C     0.2714     0.1555     0.001
A_1     C     0.213     0.029     0.7383
A_1     C     0.6415     0.965     0.4847
A_3     C     0.2791     0.7703     0.7612
A_3     C     0.4936     0.6253     0.9056
A_0     C     0.334     0.4631     0.0887
A_0     C     0.9574     0.1778     0.8528
A_3     C     0.0518     0.1983     0.5471
A_3     C     0.059     0.5742     0.7401
A_2     C     0.0699     0.0494     0.0985
A_0     C     0.8974     0.5555     0.7297
A_1     C     0.8256     0.5387     0.1782
A_3     C     0.2079     0.4796     0.0184
A_1     C     0.9483     0.8386     0.5492
A_1     C     0.9803     0.6577     0.5465
A_3     C     0.907     0.9295     0.6135
A_2     C     0.3864     0.8426     0.5151
A_3     C     0.2952     0.8119     0.8504
A_2     C     0.1016     0.4168     0.8814
A_1     C     0.0491     0.3327     0.4424
A_0     C     0.2267     0.3064     0.2995
A_1     C     0.7788     0.7624     0.8287
A_3     C     0.7802     0.6897     0.589
A_2     C     0.1772     0.7091     0.6705
A_3     C     0.3063     0.69     0.3672
A_3     C     0.7739     0.8191     0.5606
A_2     C     0.5855     0.9802     0.4408
A_1     C     0.0339     0.9994     0.6211
A_2     C     0.0498     0.3241     0.9035
A_3     C     0.8269     0.7384     0.2283
A_3     C     0.3325     0.4731     0.8689
A_0     C     0.3562     0.1594     0.4457
A_3     C     0.8608     0.9979     0.7293
A_3     C     0.6636     0.3054     0.78
A_3     C     0.1785     0.1     0.7965
A_3     C     0.3742     0.5298     0.2229
A_0     C     0.0126     0.442     0.4169
A_3     C     0.4892     0.4975     0.3272
A_0     C     0.5485     0.9279     0.224
A_1     C     0.7979     0.2145     0.9743
A_1     C     0.6937     0.6201     0.7412
A_0     C     0.76     0.0588     0.9318
A_3     C     0.4611     0.1466     0.5145
A_0     C     0.7422     0.6958     0.1114
A_3     C     0.8929     0.8659     0.9407
A_0     C     0.2864     0.978     0.7915
A_3     C     0.5199     0.8317     0.8954
A_2     C     0.6061     0.0765     0.7451
A_1     C     0.4783     0.4469     0.5996
A_2     C     0.7408     0.1567     0.609
A_2     C     0.7175     0.4286     0.8549
A_1     C     0.676     0.5221     0.783
A_0     C     0.9663     0.975     0.7867
A_1     C     0.031     0.8616     0.6003
A_1     C     0.9246     0.7121     0.7108
A_2     C     0.3547     0.3436     0.6312
A_1     C     0.7316     0.597     0.6049
A_3     C     0.4395     0.2804     0.8679
A_3     C     0.0397     0.9556     0.6035
A_0     C     0.8421     0.4925     0.2552
A_0     C     0.3123     0.9771     0.301
A_2     C     0.9256     0.357     0.6129
A_3     C     0.7209     0.7368     0.4531
A_3     C     0.6392     0.2936     0.6757
A_0     C     0.9921     0.2823     0.2842
A_2     C     0.4243     0.3147     0.6218
A_2     C     0.7187     0.2869     0.4297
A_2     C     0.3166     0.764     0.4966
A_0     C     0.2506     0.3675     0.6506
A_0     C     0.0397     0.8293     0.224
A_2     C     0.4012     0.3477     0.4443
A_0     C     0.0593     0.0913     0.0804
A_3     C     0.296     0.2928     0.4308
A_3     C     0.851     0.3199     0.1251
A_3     C     0.3938     0.57     0.646
A_2     C     0.1695     0.5862     0.3133
A_0     C     0.1787     0.3426     0.8064
A_3     C     0.4442     0.4771     0.1431
A_3     C     0.9136     0.7357     0.983
A_2     C     0.7799     0.6657     0.4865
A_1     C     0.1803     0.8722     0.2826
A_1     C     0.388     0.3643     0.2051
A_2     C     0.9454     0.0168     0.9767
A_0     C     0.3415     0.5124     0.0457
A_0     C     0.2167     0.2995     0.9439
A_0     C     0.5293     0.2488     0.06
A_0     C     0.1658     0.7881     0.1608
A_2     C     0.879     0.5877     0.6152
A_1     C     0.7562     0.5062     0.0482
A_0     C     0.6765     0.6345     0.0839
A_0     C     0.249     0.6134     0.8936
A_2     C     0.4276     0.2081     0.3032
A_0     C     0.8389     0.467     0.1781
A_3     C     0.6334     0.5021     0.7133
A_1     C     0.6173     0.0488     0.2843
A_0     C     0.8437     0.8516     0.2742
A_3     C     0.8225     0.704     0.6048
A_3     C     0.291     0.8581     0.8349
A_3     C     0.3043     0.4057     0.5977
A_1     C     0.4175     0.5413     0.9833
A_3     C     0.8716     0.2007     0.2991
A_1     C     0.5821     0.0079     0.628
A_1     C     0.7885     0.567     0.6045
A_2     C     0.3208     0.6107     0.7469
A_0     C     0.7793     0.5686     0.8767
A_1     C     0.3404     0.9415     0.8381
A_1     C     0.5809     0.2048     0.9887
A_3     C     0.9315     0.7121     0.6424
A_2     C     0.1559     0.6047     0.4259
A_3     C     0.7868     0.7967     0.4761
A_2     C     0.5188     0.8455     0.7494
A_0     C     0.2263     0.9182     0.0576
A_2     C     0.3046     0.6438     0.4404
A_2     C     0.7826     0.9008     0.906
A_3     C     0.8202     0.3361     0.8785
A_2     C     0.4436     0.3814     0.7046
A_2     C     0.7663     0.3583     0.0503
A_0     C     0.0336     0.6058     0.1166
A_1     C     0.9514     0.3232     0.1615
A_0     C     0.6784     0.7503     0.9595
A_1     C     0.5991     0.7861     0.23
A_2     C     0.6107     0.4634     0.7249
A_3     C     0.8228     0.5707     0.4819
A_0     C     0.5885     0.5348     0.3314
A_2     C     0.4645     0.788     0.1289
A_2     C     0.7078     0.9063     0.8816
A_2     C     0.7437     0.3228     0.4387
A_1     C     0.0923     0.2218     0.7223
A_2     C     0.55     0.8035     0.5888
A_0     C     0.127     0.8489     0.0385
A_2     C     0.0742     0.1491     0.0811
A_2     C     0.1955     0.7212     0.0688
A_2     C     0.8146     0.0426     0.9067
A_1     C     0.2849     0.972     0.4431
A_1     C     0.9386     0.85     0.8375
A_0     C     0.5951     0.1966     0.5936
A_3     C     0.0658     0.4535     0.2331
A_2     C     0.9464     0.669     0.4023
A_3     C     0.774     0.2341     0.6842
A_2     C     0.4208     0.6411     0.0679
A_2     C     0.2308     0.7371     0.9486
A_3     C     0.654     0.526     0.4788
A_3     C     0.7697     0.7502     0.6872
A_1     C     0.5847     0.4398     0.5599
A_1     C     0.0788     0.11     0.466
A_0     C     0.7812     0.9911     0.5448
A_0     C     0.6727     0.1573     0.1045
A_2     C     0.8516     0.9373     0.7326
A_2     C     0.6612     0.6829     0.6075
A_3     C     0.5228     0.9976     0.9508
A_0     C     0.6205     0.1585     0.2807
A_3     C     0.6405     0.4739     0.7078
A_0     C     0.7645     0.9425     0.408
A_3     C     0.06     0.9008     0.5453
A_2     C     0.1358     0.519     0.3042
A_3     C     0.4538     0.5696     0.1275
A_1     C     0.4521     0.9177     0.0056
A_1     C     0.6051     0.4424     0.3379
A_0     C     0.6093     0.1934     0.9054
A_1     C     0.0056     0.3106     0.4177
A_3     C     0.2173     0.7189     0.919
A_0     C     0.6554     0.03     0.2438
A_1     C     0.1043     0.3008     0.5038
A_2     C     0.3679     0.4038     0.5655
A_2     C     0.9133     0.9647     0.5796
A_3     C     0.4631     0.8683     0.2511
A_0     C     0.3486     0.3524     0.5791
A_1     C     0.2722     0.3027     0.5307
A_0     C     0.802     0.1996     0.8514
A_1     C     0.3504     0.1097     0.5746
A_2     C     0.4955     0.4118     0.4706
A_0     C     0.9298     0.7431     0.8298
A_3     C     0.2281     0.2451     0.8474
A_3     C     0.1353     0.2039     0.1158
A_1     C     0.0231     0.2078     0.9439
A_2     C     0.2197     0.6022     0.3867
A_3     C     0.5362     0.3588     0.882
A_3     C     0.1948     0.467     0.227
A_3     C     0.5024     0.0496     0.7996
A_0     C     0.7383     0.378     0.1623
A_1     C     0.8666     0.4097     0.7934
A_3     C     0.8801     0.9965     0.0822
A_1     C     0.6465     0.639     0.8257
A_1     C     0.2771     0.0155     0.6839
A_2     C     0.0924     0.2857     0.8512
A_3     C     0.591     0.2709     0.2916
A_1     C     0.1517     0.1648     0.3029
A_2     C     0.7529     0.3612     0.6833
A_1     C     0.1734     0.5755     0.4575
A_1     C     0.8999     0.6981     0.5266
A_3     C     0.8687     0.3509     0.3793
A_1     C     0.2679     0.6332     0.0646
A_3     C     0.3421     0.4398     0.4619
A_1     C     0.1098     0.7286     0.7111
A_2     C     0.2425     0.3297     0.6187
A_0     C     0.5698     0.6041     0.0262
A_2     C     0.0719     0.8094     0.1391
A_2     C     0.4194     0.5271     0.5925
A_3     C     0.2345     0.5496     0.2035
A_0     C     0.0616     0.4642     0.9221
A_1     C     0.1034     0.0335     0.2097
A_2     C     0.8695     0.4747     0.6231
A_0     C     0.5557     0.2576     0.5727
A_1     C     0.3814     0.1536     0.705
A_2     C     0.5393     0.9028     0.1773
A_1     C     0.2115     0.0285     0.7271
A_2     C     0.7865     0.6535     0.5642
A_1     C     0.3324     0.8903     0.1136
A_3     C     0.6766     0.8941     0.9435
A_2     C     0.039     0.8116     0.5708
A_1     C     0.6922     0.7438     0.067
A_1     C     0.1522     0.1579     0.5728
A_2     C     0.0501     0.159     0.2087
A_0     C     0.2883     0.0963     0.4662
A_1     C     0.9368     0.5917     0.1233
A_0     C     0.0039     0.7247     0.4945
A_3     C     0.6009     0.6843     0.2135
A_1     C     0.5127     0.3706     0.0076
A_1     C     0.5835     0.9955     0.4261
A_1     C     0.1144     0.5233     0.6303
A_2     C     0.2328     0.3785     0.3872
A_3     C     0.415     0.8166     0.732
A_0     C     0.2662     0.8737     0.8942
A_0     C     0.0024     0.4293     0.0188
A_2     C     0.4714     0.1923     0.8038
A_2     C     0.4288     0.944     0.4809
A_1     C     0.5092     0.8262     0.4525
A_2     C     0.343     0.8022     0.8833
A_2     C     0.6785     0.1202     0.2588
A_0     C     0.2007     0.2038     0.8011
A_3     C     0.6245     0.6276     0.5558
A_3     C     0.525     0.0082     0.1298
A_3     C     0.385     0.3822     0.4408
A_2     C     0.4017     0.0148     0.8926
A_2     C     0.8567     0.0622     0.1649
A_1     C     0.4488     0.3293     0.1084
A_1     C     0.4844     0.3859     0.0054
A_3     C     0.5306     0.2459     0.9934
A_0     C     0.0546     0.8154     0.7671
A_2     C     0.0373     0.7753     0.6235
A_1     C     0.7595     0.8035     0.5666
A_1     C     0.7099     0.496     0.2667
A_2     C     0.9517     0.9992     0.2265
A_1     C     0.1058     0.8156     0.7496
A_1     C     0.4255     0.4724     0.9743
A_3     C     0.7297     0.4289     0.3252
A_0     C     0.9058     0.3732     0.769
A_0     C     0.0475     0.7224     0.2333
A_0     C     0.1805     0.0797     0.9386
A_2     C     0.2463     0.009     0.8402
A_1     C     0.9885     0.2905     0.0533
A_0     C     0.3843     0.1321     0.7716
A_1     C     0.2976     0.7025     0.9461
A_0     C     0.2409     0.0152     0.604
A_0     C     0.0129     0.264     0.7433
A_2     C     0.1506     0.596     0.6547
A_3     C     0.538     0.6165     0.0548
A_1     C     0.0204     0.7554     0.3015
A_1     C     0.6249     0.5915     0.7137
A_2     C     0.4623     0.8026     0.6636
A_0     C     0.241     0.174     0.3843
A_3     C     0.9157     0.0048     0.6844
A_0     C     0.7374     0.0767     0.2393
A_0     C     0.2545     0.9591     0.7919
A_3     C     0.7361     0.6497     0.3247
A_1     C     0.8299     0.9548     0.0945
A_1     C     0.2553     0.6094     0.5775
A_1     C     0.4936     0.914     0.4756
A_2     C     0.8592     0.8619     0.3654
A_0     C     0.9687     0.8641     0.4182
A_3     C     0.2611     0.6844     0.8185
A_0     C     0.4317     0.4701     0.7158
A_2     C     0.9683     0.7519     0.1858
A_0     C     0.1128     0.3301     0.3025
A_3     C     0.3248     0.1052     0.8625
A_2     C     0.1148     0.599     0.4809
A_3     C     0.6703     0.0834     0.5415
A_0     C     0.6784     0.3506     0.3204
A_3     C     0.6591     0.8568     0.9387
A_1     C     0.4494     0.937     0.7419
A_1     C     0.1676     0.8085     0.2799
A_2     C     0.474     0.372     0.954
A_2     C     0.2564     0.6667     0.3293
A_3     C     0.4291     0.9764     0.1889
A_0     C     0.0074     0.5261     0.7587
A_3     C     0.8814     0.6915     0.7017
A_0     C     0.9683     0.4244     0.6798
A_1     C     0.4573     0.0278     0.6848
A_0     C     0.5609     0.5676     0.3609
A_2     C     0.0175     0.253     0.2194
A_2     C     0.1627     0.766     0.1332
A_2     C     0.373     0.0535     0.2533
A_3     C     0.9498     0.8589     0.0298
A_1     C     0.8062     0.1308     0.0568
A_0     C     0.1121     0.2161     0.1606
A_1     C     0.9732     0.0376     0.0965
A_1     C     0.9202     0.2314     0.3798
A_0     C     0.5683     0.7069     0.4001
A_2     C     0.6362     0.3416     0.115
A_0     C     0.1683     0.7983     0.4137
A_0     C     0.8006     0.8141     0.0166
A_2     C     0.4115     0.3029     0.9637
A_3     C     0.1161     0.7341     0.8666
A_2     C     0.9222     0.3706     0.2696
A_2     C     0.5452     0.7803     0.2432
A_0     C     0.5665     0.5749     0.3899
A_1     C     0.022     0.9558     0.3887
A_3     C     0.6768     0.9381     0.5143
A_2     C     0.3186     0.2892     0.2772
A_2     C     0.4976     0.7802     0.5688
A_1     C     0.0328     0.346     0.7337
A_1     C     0.2696     0.9341     0.2142
A_2     C     0.691     0.8836     0.1149
A_1     C     0.3159     0.2468     0.0933
A_3     C     0.8238     0.9533     0.308
A_2     C     0.096     0.2115     0.1207
A_1     C     0.902     0.9948     0.4767
A_0     C     0.5439     0.5939     0.1881
A_1     C     0.5071     0.0745     0.9253
A_3     C     0.5693     0.6288     0.0428
A_3     C     0.1979     0.0627     0.6803
A_3     C     0.5502     0.7705     0.978
A_0     C     0.4078     0.7275     0.7284
A_2     C     0.004     0.5063     0.5618
A_1     C     0.0079     0.6736     0.9157
A_2     C     0.1073     0.3503     0.8793
A_3     C     0.4895     0.5041     0.4514
A_0     C     0.827     0.3206     0.1251
A_0     C     0.1458     0.8399     0.9206
A_0     C     0.143     0.7294     0.3154
A_1     C     0.2129     0.2841     0.3525
A_2     C     0.0733     0.4337     0.8034
A_3     C     0.7053     0.5197     0.178
A_1     C     0.9889     0.7012     0.0165
A_0     C     0.6426     0.1348     0.2586
A_0     C     0.1192     0.7024     0.0191
A_3     C     0.8856     0.8042     0.9168
A_2     C     0.219     0.943     0.9676
A_0     C     0.2666     0.4738     0.4632
A_3     C     0.547     0.7657     0.0562
A_0     C     0.4835     0.8545     0.5425
A_2     C     0.7686     0.351     0.4765
A_0     C     0.4162     0.7243     0.1181
A_1     C     0.9038     0.6967     0.4528
A_1     C     0.8819     0.8528     0.587
A_3     C     0.4797     0.0773     0.8406
A_2     C     0.4424     0.2112     0.1609
A_2     C     0.0237     0.4216     0.6173
A_1     C     0.536     0.8022     0.1013
A_2     C     0.9877     0.4928     0.1515
A_1     C     0.1423     0.367     0.8027
A_1     C     0.0451     0.2698     0.2536
A_3     C     0.4758     0.2626     0.2994
A_3     C     0.0314     0.8612     0.7315
A_1     C     0.3281     0.1113     0.0256
A_0     C     0.1571     0.2919     0.9509
A_2     C     0.5219     0.5768     0.7236
A_0     C     0.7842     0.1741     0.1077
A_3     C     0.4605     0.4965     0.1763
A_1     C     0.1721     0.9204     0.5542
A_0     C     0.5552     0.846     0.5806
A_0     C     0.0554     0.9999     0.357
A_0     C     0.2247     0.298     0.952
A_1     C     0.2666     0.0462     0.1704
A_2     C     0.9097     0.9082     0.452
A_3     C     0.3557     0.0151     0.612
A_3     C     0.8533     0.3125     0.9062
A_2     C     0.9149     0.7934     0.7857
A_3     C     0.2071     0.0422     0.619
A_1     C     0.1337     0.912     0.6284
A_2     C     0.8313     0.9675     0.2778
A_3     C     0.7266     0.3641     0.8231
A_1     C     0.5989     0.7985     0.3806
A_2     C     0.4185     0.5111     0.1416
A_2     C     0.2247     0.9145     0.0355
A_1     C     0.9921     0.8193     0.2876
A_2     C     0.6469     0.6693     0.1935
A_1     C     0.7669     0.4594     0.8925
A_3     C     0.5782     0.9874     0.64
A_3     C     0.3369     0.0447     0.6749
A_2     C     0.1125     0.952     0.8359
A_1     C     0.6952     0.8076     0.2848
A_2     C     0.5433     0.253     0.3879
A_0     C     0.9045     0.5486     0.8288
A_3     C     0.8335     0.6611     0.9934
A_2     C     0.4827     0.8225     0.6714
A_1     C     0.4635     0.5163     0.8502
A_2     C     0.8342     0.681     0.1256
A_0     C     0.1446     0.3443     0.7659
A_3     C     0.5735     0.8578     0.9492
A_2     C     0.9226     0.5089     0.6921
A_2     C     0.0817     0.815     0.2116
A_0     C     0.1769     0.1168     0.6626
A_2     C     0.7723     0.3174     0.129
A_1     C     0.2982     0.0028     0.8191
A_1     C     0.4802     0.6889     0.2138
A_1     C     0.0394     0.603     0.9996
A_3     C     0.9295     0.967     0.1272
A_2     C     0.0468     0.5587     0.9591
A_2     C     0.3365     0.7367     0.3381
A_1     C     0.2568     0.6358     0.781
A_1     C     0.9973     0.494     0.1804
A_2     C     0.7254     0.9671     0.0977
A_2     C     0.1948     0.226     0.2639
A_3     C     0.8376     0.4871     0.6373
A_3     C     0.2319     0.3307     0.4769
A_1     C     0.4221     0.1174     0.1525
A_0     C     0.5012     0.5438     0.2786
A_1     C     0.318     0.1213     0.2427
A_0     C     0.1657     0.2472     0.2041
A_3     C     0.2919     0.8076     0.1131
A_1     C     0.0286     0.6071     0.9594
A_3     C     0.0161     0.3832     0.2623
A_3     C     0.2749     0.1078     0.9486
A_1     C     0.2573     0.0391     0.9083
A_2     C     0.7974     0.6904     0.4202
A_2     C     0.8886     0.0989     0.0782
A_0     C     0.934     0.3845     0.7358
A_3     C     0.8637     0.8873     0.6033
A_2     C     0.7293     0.2726     0.9319
A_1     C     0.8818     0.8934     0.0161
A_1     C     0.1649     0.873     0.3317
A_3     C     0.4141     0.8587     0.8186
A_0     C     0.7949     0.4828     0.5394
A_2     C     0.421     0.0729     0.1408
A_3     C     0.4694     0.4818     0.3268
A_3     C     0.5524     0.1015     0.046
A_1     C     0.9045     0.0983     0.4262
A_0     C     0.7515     0.5408     0.0935
A_0     C     0.4518     0.0891     0.9952
A_3     C     0.7639     0.1561     0.7554
A_3     C     0.1592     0.8509     0.6233
A_2     C     0.5799     0.7696     0.9745
A_1     C     0.0425     0.9284     0.0884
A_3     C     0.089     0.7663     0.0533
A_0     C     0.2957     0.8266     0.5118
A_2     C     0.1757     0.5508     0.3956
A_3     C     0.7434     0.3333     0.6211
A_2     C     0.8859     0.6056     0.8266
A_0     C     0.1436     0.5576     0.8141
A_2     C     0.2411     0.6239     0.2131
A_3     C     0.7375     0.3838     0.4994
A_3     C     0.7751     0.0879     0.9447
A_0     C     0.4557     0.8737     0.6564
A_1     C     0.7716     0.2493     0.1655
A_0     C     0.604     0.9952     0.4771
A_2     C     0.4326     0.7296     0.2629
A_1     C     0.9441     0.0692     0.0017
A_1     C     0.3408     0.4524     0.5369
A_0     C     0.1654     0.2626     0.3574
A_1     C     0.9176     0.0598     0.8519
A_2     C     0.2572     0.7558     0.5832
A_3     C     0.4883     0.6056     0.4272
A_3     C     0.087     0.6265     0.1002
A_3     C     0.893     0.4239     0.6047
A_3     C     0.2315     0.3079     0.2096
A_0     C     0.7703     0.8795     0.2754
A_0     C     0.1984     0.7035     0.3416
A_3     C     0.7086     0.8409     0.1193
A_0     C     0.8603     0.4794     0.3793
A_0     C     0.5682     0.6457     0.0307
A_0     C     0.8499     0.3889     0.4779
A_1     C     0.9065     0.567     0.3285
A_0     C     0.1476     0.3086     0.2245
A_3     C     0.9657     0.338     0.8537
A_1     C     0.4104     0.8891     0.6527
A_1     C     0.087     0.4397     0.5092
A_3     C     0.6595     0.2542     0.7426
A_2     C     0.376     0.0368     0.8874
A_3     C     0.4814     0.205     0.2118
A_2     C     0.7568     0.8131     0.9643
A_2     C     0.2632     0.7409     0.4441
A_1     C     0.4647     0.1208     0.8833
A_0     C     0.2684     0.4388     0.3181
A_3     C     0.2147     0.3218     0.2058
A_2     C     0.0474     0.6163     0.4372
A_2     C     0.6825     0.0001     0.6129
A_3     C     0.3582     0.7279     0.2159
A_0     C     0.561     0.7183     0.0103
A_2     C     0.6125     0.2191     0.7147
A_1     C     0.3252     0.2403     0.2489
A_0     C     0.6821     0.5138     0.4309
A_3     C     0.3315     0.0822     0.0299
A_0     C     0.4634     0.1263     0.7961
A_0     C     0.4652     0.7523     0.3884
A_1     C     0.8803     0.5624     0.4229
A_0     C     0.4637     0.114     0.6146
A_1     C     0.996     0.9852     0.8176
A_0     C     0.5047     0.5886     0.9004
A_2     C     0.092     0.0345     0.9242
A_1     C     0.3922     0.018     0.9271
A_0     C     0.9833     0.1507     0.6372
A_1     C     0.8853     0.3611     0.5663
A_3     C     0.8741     0.5344     0.4192
A_3     C     0.0989     0.9263     0.8673
A_3     C     0.3951     0.7787     0.8541
A_1     C     0.8449     0.3769     0.054
A_2     C     0.1355     0.2829     0.6743
A_1     C     0.744     0.4969     0.3642
A_0     C     0.7075     0.8395     0.6575
A_0     C     0.092     0.6137     0.2162
A_0     C     0.6134     0.3937     0.9107
A_1     C     0.1333     0.7319     0.8237
A_2     C     0.1445     0.7323     0.0824
A_3     C     0.5474     0.6894     0.3549
A_2     C     0.0858     0.156     0.3826
A_3     C     0.4298     0.9043     0.6757
A_3     C     0.5951     0.454     0.5096
A_2     C     0.1896     0.4665     0.9116
A_1     C     0.5444     0.4052     0.5752
A_0     C     0.3833     0.7817     0.1025
A_0     C     0.4516     0.0366     0.8301
A_0     C     0.0114     0.9815     0.9384
A_3     C     0.8654     0.9377     0.5457
A_3     C     0.9949     0.31     0.0597
A_2     C     0.3009     0.279     0.135
A_3     C     0.2697     0.1481     0.1403
A_2     C     0.5637     0.5438     0.416
A_0     C     0.0473     0.4911     0.8147
A_0     C     0.5713     0.5719     0.3242
A_3     C     0.5911     0.4971     0.1599
A_1     C     0.7192     0.7408     0.7337
A_1     C     0.1305     0.9067     0.7485
A_1     C     0.6491     0.1725     0.114
A_2     C     0.3217     0.5397     0.965
A_2     C     0.7141     0.1287     0.7811
A_2     C     0.52     0.1356     0.0097
A_2     C     0.2505     0.5246     0.5714
A_1     C     0.5038     0.3513     0.0744
A_1     C     0.6512     0.6325     0.119
A_0     C     0.3462     0.0956     0.8295
A_2     C     0.3386     0.1604     0.0707
A_1     C     0.7177     0.8106     0.4193
A_0     C     0.5888     0.8907     0.1593
A_3     C     0.5623     0.7352     0.7165
A_2     C     0.898     0.8066     0.256
A_3     C     0.3814     0.871     0.8417
A_1     C     0.2977     0.2815     0.8192
A_0     C     0.3375     0.8664     0.4509
A_1     C     0.9208     0.8573     0.4144
A_2     C     0.7869     0.2119     0.7239
A_2     C     0.8094     0.8038     0.3422
A_1     C     0.1324     0.9971     0.3917
A_0     C     0.4605     0.3676     0.2812
A_1     C     0.6583     0.7133     0.825
A_2     C     0.305     0.6737     0.3237
A_2     C     0.5592     0.2545     0.2677
A_0     C     0.1705     0.3566     0.0085
A_0     C     0.3257     0.9988     0.2743
A_1     C     0.6222     0.2747     0.7077
A_3     C     0.1125     0.5415     0.1091
A_3     C     0.966     0.444     0.577
A_0     C     0.9907     0.9233     0.2203
A_1     C     0.3854     0.1801     0.2163
A_3     C     0.8557     0.6052     0.4327
A_3     C     0.4185     0.0063     0.8352
A_0     C     0.1696     0.6703     0.0903
A_1     C     0.335     0.01     0.9325
A_0     C     0.7412     0.5783     0.7856
A_0     C     0.4531     0.863     0.0511
A_0     C     0.4629     0.7328     0.9191
A_3     C     0.2087     0.3519     0.7675
A_0     C     0.0302     0.2173     0.9476
A_1     C     0.0415     0.8968     0.6057
A_1     C     0.3829     0.788     0.3776
A_0     C     0.2152     0.4334     0.829
A_0     C     0.8041     0.678     0.4408
A_0     C     0.0914     0.6912     0.7648
A_1     C     0.2987     0.9797     0.9206
A_3     C     0.4581     0.0534     0.0894
A_3     C     0.9511     0.1329     0.5191
A_0     C     0.0563     0.836     0.2312
A_2     C     0.5021     0.6583     0.744
A_1     C     0.3664     0.4906     0.7874
A_3     C     0.4936     0.4263     0.0638
A_3     C     0.8445     0.0502     0.1331
A_0     C     0.5354     0.5314     0.4374
A_0     C     0.0205     0.6053     0.577
A_1     C     0.9448     0.1164     0.4812
A_3     C     0.436     0.5706     0.2369
A_2     C     0.1986     0.2617     0.2672
A_0     C     0.3283     0.6135     0.2378
A_3     C     0.3275     0.8761     0.295
A_3     C     0.7198     0.5354     0.6473
A_3     C     0.0917     0.9997     0.6032
A_3     C     0.6824     0.6838     0.075
A_1     C     0.2702     0.1358     0.7087
A_3     C     0.6491     0.835     0.8316
A_2     C     0.7861     0.2515     0.4784
A_3     C     0.0384     0.9019     0.0478
A_2     C     0.8037     0.715     0.026
A_0     C     0.7294     0.778     0.5729
A_0     C     0.0283     0.7345     0.3483
A_3     C     0.8991     0.6188     0.424
A_0     C     0.2737     0.5468     0.9208
A_1     C     0.2772     0.5545     0.1699
A_1     C     0.5756     0.4656     0.227
A_0     C     0.8871     0.9623     0.9229
A_2     C     0.7785     0.7581     0.6365
A_3     C     0.5916     0.4052     0.9605
A_0     C     0.4171     0.9996     0.1173
A_2     C     0.0465     0.8848     0.1507
A_2     C     0.1065     0.5927     0.834
A_1     C     0.7926     0.9438     0.9743
A_2     C     0.17     0.0273     0.2505
A_1     C     0.0483     0.0362     0.5734
A_1     C     0.7067     0.3845     0.2637
A_1     C     0.4756     0.3049     0.0853
A_2     C     0.7111     0.3035     0.6291
A_0     C     0.3672     0.914     0.3448
A_1     C     0.5505     0.3632     0.7728
A_0     C     0.8983     0.9974     0.2087
A_1     C     0.9002     0.0359     0.2843
A_1     C     0.7924     0.2899     0.4609
A_2     C     0.8439     0.1231     0.9355
A_1     C     0.5118     0.067     0.602
A_3     C     0.6895     0.4396     0.4824
A_2     C     0.8785     0.2913     0.8928
A_1     C     0.0214     0.1304     0.9668
A_3     C     0.9596     0.0782     0.0203
A_2     C     0.4965     0.2908     0.7967
A_3     C     0.7506     0.8395     0.2325
A_1     C     0.1136     0.2417     0.9951
A_2     C     0.7644     0.9457     0.1728
A_3     C     0.3218     0.6322     0.0496
A_0     C     0.2158     0.0328     0.5499
A_0     C     0.4197     0.8613     0.676
A_1     C     0.3477     0.6384     0.2897
A_3     C     0.9606     0.6316     0.138
A_0     C     0.1624     0.4329     0.2572
A_1     C     0.2719     0.7703     0.4737
A_3     C     0.9673     0.9399     0.932
A_1     C     0.2512     0.1196     0.0463
A_1     C     0.696     0.6796     0.3322
A_2     C     0.448     0.0032     0.8429
A_2     C     0.1838     0.6546     0.0592
A_2     C     0.5822     0.1322     0.7428
A_2     C     0.1873     0.4719     0.4167
A_2     C     0.487     0.8488     0.0378
A_1     C     0.6724     0.5367     0.9054
A_1     C     0.2129     0.1623     0.3048
A_3     C     0.0297     0.5067     0.1677
A_2     C     0.73     0.4776     0.4984
A_3     C     0.9971     0.597     0.6115
A_3     C     0.1512     0.8975     0.4815
A_2     C     0.5658     0.8622     0.6814
A_0     C     0.8578     0.2288     0.037
A_1     C     0.2304     0.1753     0.3193
A_3     C     0.3344     0.8659     0.6029
A_0     C     0.4868     0.1061     0.821
A_0     C     0.3113     0.1516     0.9051
A_1     C     0.5182     0.0138     0.9862
A_0     C     0.181     0.045     0.5227
A_2     C     0.6066     0.656     0.3815
A_2     C     0.318     0.3794     0.075
A_0     C     0.0936     0.5486     0.0622
A_3     C     0.6368     0.974     0.511
A_1     C     0.0098     0.0753     0.2139
A_0     C     0.7332     0.7979     0.9382
A_0     C     0.8609     0.2806     0.7319
A_2     C     0.4347     0.492     0.4329
A_2     C     0.3229     0.9196     0.9202
A_0     C     0.0857     0.5848     0.2625
A_1     C     0.0008     0.8663     0.5792
A_1     C     0.0285     0.5336     0.8846
A_2     C     0.0179     0.0991     0.3958
A_0     C     0.7206     0.0693     0.3461
A_0     C     0.5398     0.6017     0.832
A_1     C     0.0274     0.9497     0.2202
A_1     C     0.9729     0.6868     0.1051
A_1     C     0.946     0.5265     0.0919
A_0     C     0.8457     0.0499     0.3718
A_1     C     0.7675     0.3306     0.4999
A_3     C     0.7386     0.5012     0.271
A_2     C     0.1428     0.5625     0.3186
A_2     C     0.7291     0.6316     0.6548
A_1     C     0.9348     0.2501     0.3714
A_0     C     0.9825     0.8888     0.857
A_3     C     0.6435     0.7663     0.0297
A_2     C     0.8169     0.5196     0.1367
A_3     C     0.233     0.9064     0.8769
A_3     C     0.3127     0.6344     0.1651
A_2     C     0.2865     0.5678     0.1026
A_3     C     0.1362     0.8675     0.577
A_2     C     0.7687     0.1702     0.2827
A_2     C     0.9554     0.4789     0.6641
A_0     C     0.1109     0.3403     0.5102
A_2     C     0.2956     0.0544     0.5451
A_2     C     0.3107     0.0541     0.6158
A_3     C     0.8254     0.5375     0.7237
A_0     C     0.4947     0.2836     0.6464
A_3     C     0.9874     0.4641     0.0804
A_0     C     0.7947     0.6357     0.92
A_2     C     0.9465     0.5323     0.8239
A_2     C     0.283     0.0221     0.4763
A_1     C     0.0947     0.9264     0.9768
A_2     C     0.9312     0.8599     0.4892
A_3     C     0.1019     0.8789     0.9529
A_2     C     0.7054     0.466     0.5538
A_3     C     0.6979     0.6893     0.8052
A_1     C     0.5047     0.1301     0.0837
A_1     C     0.1031     0.4935     0.9345
A_1     C     0.7364     0.7065     0.2959
A_1     C     0.1271     0.857     0.5022
A_3     C     0.4459     0.2857     0.6565
A_1     C     0.7273     0.4006     0.2372
A_3     C     0.7967     0.7227     0.2218
A_0     C     0.961     0.3053     0.9735
A_3     C     0.3938     0.7942     0.2249
A_0     C     0.969     0.7905     0.954
A_3     C     0.3     0.7382     0.2459
A_1     C     0.9659     0.0648     0.9954
A_0     C     0.2155     0.9108     0.722
A_1     C     0.6671     0.3883     0.8321
A_0     C     0.4021     0.4187     0.2218
A_1     C     0.7038     0.9684     0.578
A_2     C     0.9636     0.2397     0.1696
A_3     C     0.1559     0.2212     0.2057
A_3     C     0.7946     0.507     0.8756
A_2     C     0.4228     0.8965     0.4912
A_1     C     0.4851     0.3583     0.4382
A_2     C     0.3673     0.4021     0.2843
A_1     C     0.8631     0.9911     0.7078
A_2     C     0.53     0.1426     0.3838
A_1     C     0.1733     0.1245     0.0373
A_2     C     0.8826     0.5038     0.6212
A_3     C     0.7901     0.1991     0.885
A_3     C     0.2499     0.3229     0.2278
A_0     C     0.7682     0.3579     0.7501
A_2     C     0.4461     0.6773     0.3594
A_1     C     0.4908     0.0516     0.105
A_1     C     0.2347     0.1888     0.6358
A_3     C     0.8395     0.4514     0.8439
A_0     C     0.4717     0.1606     0.3849
A_3     C     0.7836     0.6321     0.4133
A_2     C     0.9351     0.933     0.9657
A_1     C     0.4391     0.0591     0.1135
A_1     C     0.8105     0.1536     0.9151
A_3     C     0.073     0.0741     0.5081
A_2     C     0.1896     0.1176     0.0286
A_0     C     0.6559     0.3475     0.2999
A_2     C     0.1827     0.0831     0.0555
A_0     C     0.5239     0.4712     0.9892
A_2     C     0.1833     0.8029     0.1208
A_3     C     0.609     0.3671     0.7135
A_0     C     0.007     0.8211     0.2431
A_3     C     0.3818     0.1768     0.5944
A_2     C     0.0874     0.6508     0.1819
A_0     C     0.7398     0.948     0.8554
A_3     C     0.9561     0.7663     0.1773
A_3     C     0.5033     0.3067     0.0934
A_0     C     0.2891     0.534     0.245
A_2     C     0.5135     0.2407     0.1283
A_3     C     0.2045     0.3894     0.1425
A_2     C     0.9015     0.7194     0.6002
A_1     C     0.9956     0.7254     0.826
A_0     C     0.9305     0.1086     0.3054
A_2     C     0.4595     0.0276     0.5571
A_1     C     0.9526     0.9191     0.0157
A_0     C     0.983     0.5015     0.0877
A_2     C     0.1611     0.947     0.1451
A_1     C     0.6833     0.4612     0.5897
A_2     C     0.0529     0.654     0.6244
A_3     C     0.4438     0.733     0.5811
A_3     C     0.7763     0.8324     0.8613
A_2     C     0.9615     0.8395     0.7555
A_1     C     0.3012     0.2257     0.5202
A_2     C     0.6418     0.3556     0.1154
A_3     C     0.6699     0.876     0.1194
A_3     C     0.9016     0.5744     0.3684
A_1     C     0.7213     0.4668     0.5786
A_2     C     0.8528     0.6072     0.4415
A_3     C     0.7863     0.2409     0.6951
A_2     C     0.9777     0.1435     0.2882
A_1     C     0.5708     0.1261     0.3908
A_1     C     0.6756     0.4758     0.9283
A_2     C     0.0276     0.4864     0.2184
A_1     C     0.0355     0.8941     0.2501
A_3     C     0.1251     0.8503     0.5919
A_3     C     0.427     0.4036     0.0256
A_0     C     0.157     0.3031     0.3218
A_0     C     0.124     0.8909     0.7271
A_0     C     0.4065     0.361     0.9145
A_3     C     0.5818     0.6488     0.5132
A_3     C     0.1526     0.2496     0.5495
A_1     C     0.6827     0.5844     0.2826
A_2     C     0.7589     0.8881     0.6894
A_3     C     0.2158     0.4079     0.1154
A_1     C     0.7529     0.4243     0.8949
A_2     C     0.6379     0.8252     0.0793
A_2     C     0.095     0.9137     0.1106
A_1     C     0.9843     0.2905     0.2599
A_1     C     0.0224     0.5917     0.3736
A_0     C     0.1676     0.5924     0.6439
A_2     C     0.4417     0.1807     0.4195
A_2     C     0.8659     0.9394     0.1041
A_0     C     0.2402     0.7746     0.104
A_3     C     0.1381     0.8407     0.098
A_0     C     0.7781     0.5685     0.5106
A_1     C     0.5714     0.5527     0.2732
A_1     C     0.405     0.7949     0.3636
A_1     C     0.6706     0.5326     0.3797
A_2     C     0.0732     0.4118     0.0118
A_2     C     0.1126     0.2379     0.6718
A_3     C     0.5179     0.6637     0.5352
A_2     C     0.0408     0.5032     0.7024
A_2     C     0.2425     0.6889     0.321
A_2     C     0.6072     0.6213     0.2099
A_0     C     0.1878     0.4967     0.2698
A_0     C     0.7611     0.111     0.7371
A_3     C     0.2443     0.2979     0.9206
A_3     C     0.937     0.5569     0.6947
A_1     C     0.9498     0.3688     0.7175
A_0     C     0.9259     0.8403     0.2235
A_2     C     0.9344     0.1651     0.7015
