MAT-4

loop_
_symmetry_equiv_pos_as_xyz
  x,y,z
_cell_length_a          35.8891
_cell_length_b          22.6231
_cell_length_c          45.768
_cell_angle_alpha       90.0000
_cell_angle_beta        90.0000
_cell_angle_gamma       90.0000
loop_
_atom_site_label
_atom_site_type_symbol
_atom_site_fract_x
_atom_site_fract_y
_atom_site_fract_z
A_1     C     0.1517     0.8533     0.4084
A_3     C     0.2246     0.7803     0.5079
A_1     C     0.3185     0.5933     0.7776
A_1     C     0.3959     0.8858     0.5461
A_0     C     0.174     0.602     0.9623
A_2     C     0.0711     0.7205     0.2699
A_0     C     0.2013     0.3222     0.74
A_2     C     0.5198     0.6601     0.5404
A_1     C     0.4728     0.6144     0.7629
A_3     C     0.087     0.7342     0.928
A_2     C     0.354     0.8149     0.9968
A_0     C     0.2953     0.7715     0.2779
A_2     C     0.7085     0.5493     0.508
A_0     C     0.918     0.2177     0.6325
A_3     C     0.4823     0.4244     0.5937
A_2     C     0.8473     0.8321     0.3271
A_3     C     0.0662     0.4096     0.7554
A_2     C     0.3829     0.6964     0.3967
A_1     C     0.271     0.4729     0.747
A_2     C     0.3516     0.2299     0.4845
A_3     C     0.546     0.2094     0.9829
A_0     C     0.3113     0.6012     0.9936
A_3     C     0.2813     0.5241     0.6044
A_2     C     0.7036     0.0319     0.3877
A_0     C     0.3821     0.4814     0.2566
A_1     C     0.4022     0.6347     0.831
A_1     C     0.2115     0.9257     0.1825
A_2     C     0.6313     0.098     0.8086
A_1     C     0.6975     0.3445     0.535
A_0     C     0.5586     0.5462     0.8537
A_3     C     0.7584     0.3494     0.5324
A_1     C     0.0708     0.9777     0.5363
A_0     C     0.34     0.0478     0.3589
A_3     C     0.069     0.0543     0.0983
A_0     C     0.3786     0.1597     0.2965
A_3     C     0.4711     0.9383     0.2431
A_3     C     0.3522     0.5732     0.7136
A_1     C     0.7051     0.043     0.185
A_3     C     0.221     0.4688     0.4135
A_3     C     0.4756     0.9835     0.7827
A_3     C     0.0262     0.2297     0.4854
A_3     C     0.2144     0.4875     0.0458
A_0     C     0.3172     0.2359     0.8721
A_2     C     0.6488     0.6902     0.4133
A_3     C     0.3958     0.1252     0.8215
A_0     C     0.2836     0.609     0.219
A_2     C     0.7637     0.5378     0.8753
A_3     C     0.0337     0.0323     0.9133
A_3     C     0.788     0.7452     0.2739
A_2     C     0.6349     0.6403     0.6823
A_3     C     0.7191     0.8308     0.2676
A_2     C     0.9075     0.8129     0.5663
A_3     C     0.0535     0.1567     0.1293
A_3     C     0.648     0.0221     0.5526
A_3     C     0.8339     0.1398     0.813
A_2     C     0.971     0.6011     0.9234
A_0     C     0.7809     0.6056     0.7486
A_2     C     0.9389     0.0232     0.1691
A_0     C     0.4454     0.6435     0.5943
A_0     C     0.9939     0.1086     0.5351
A_0     C     0.3984     0.7959     0.0534
A_0     C     0.3293     0.0228     0.6954
A_3     C     0.1575     0.3509     0.945
A_3     C     0.1451     0.1183     0.8434
A_3     C     0.9173     0.054     0.2127
A_0     C     0.096     0.6747     0.8039
A_1     C     0.1185     0.934     0.9962
A_1     C     0.0559     0.901     0.1258
A_3     C     0.1624     0.4311     0.3708
A_0     C     0.9142     0.2005     0.4405
A_1     C     0.6229     0.6066     0.6145
A_2     C     0.1542     0.7235     0.7046
A_3     C     0.2607     0.1401     0.702
A_2     C     0.1897     0.6171     0.6222
A_0     C     0.1887     0.4403     0.008
A_1     C     0.1413     0.7251     0.0367
A_3     C     0.6307     0.5008     0.4735
A_2     C     0.9076     0.9473     0.6099
A_1     C     0.1417     0.1925     0.9565
A_1     C     0.6974     0.3615     0.9489
A_2     C     0.0537     0.5729     0.2517
A_2     C     0.0954     0.8106     0.4875
A_0     C     0.2185     0.5668     0.624
A_0     C     0.8256     0.8693     0.8481
A_3     C     0.5679     0.8309     0.2091
A_2     C     0.7053     0.3618     0.0008
A_3     C     0.1632     0.3594     0.4901
A_3     C     0.2781     0.5425     0.9664
A_1     C     0.4284     0.4317     0.4224
A_1     C     0.0129     0.1864     0.0358
A_1     C     0.5527     0.1382     0.4044
A_1     C     0.9916     0.991     0.8128
A_2     C     0.2476     0.0459     0.0647
A_2     C     0.3604     0.9055     0.0425
A_3     C     0.595     0.1311     0.0085
A_1     C     0.039     0.2266     0.9466
A_2     C     0.4842     0.2306     0.5342
A_2     C     0.6612     0.0611     0.8536
A_0     C     0.9429     0.0872     0.4195
A_3     C     0.2445     0.2473     0.1669
A_3     C     0.5164     0.4635     0.3761
A_0     C     0.5668     0.9983     0.5429
A_0     C     0.5954     0.1356     0.2841
A_1     C     0.3796     0.7565     0.8456
A_2     C     0.4361     0.1866     0.5871
A_1     C     0.1251     0.6448     0.1635
A_0     C     0.1751     0.9443     0.4441
A_2     C     0.5818     0.147     0.0227
A_1     C     0.945     0.5739     0.0285
A_1     C     0.2546     0.427     0.1717
A_2     C     0.8205     0.4829     0.7627
A_3     C     0.0101     0.3723     0.8983
A_3     C     0.6444     0.5862     0.0595
A_3     C     0.7676     0.6906     0.3277
A_1     C     0.5295     0.0197     0.9153
A_1     C     0.4513     0.9632     0.199
A_1     C     0.0573     0.006     0.7698
A_3     C     0.2086     0.3724     0.0312
A_0     C     0.7987     0.6357     0.954
A_1     C     0.6195     0.2654     0.7486
A_3     C     0.5785     0.8716     0.6692
A_3     C     0.7848     0.146     0.3102
A_1     C     0.4537     0.8458     0.3492
A_3     C     0.3801     0.8122     0.3342
A_1     C     0.1261     0.7645     0.3723
A_2     C     0.9721     0.4541     0.7928
A_1     C     0.5148     0.9247     0.9359
A_2     C     0.0684     0.0232     0.4324
A_0     C     0.5474     0.8545     0.5162
A_2     C     0.3992     0.6957     0.6326
A_3     C     0.3701     0.0958     0.8652
A_3     C     0.6391     0.0626     0.7192
A_2     C     0.5982     0.8092     0.3378
A_2     C     0.259     0.6432     0.1994
A_3     C     0.6647     0.8751     0.6094
A_3     C     0.7669     0.198     0.1117
A_1     C     0.2732     0.0385     0.126
A_2     C     0.8263     0.9123     0.0903
A_1     C     0.2473     0.3761     0.7654
A_3     C     0.0085     0.2769     0.5715
A_1     C     0.0484     0.0045     0.5408
A_1     C     0.8771     0.9006     0.3364
A_0     C     0.7814     0.4611     0.1926
A_0     C     0.3288     0.4086     0.948
A_2     C     0.9199     0.9034     0.3311
A_0     C     0.3481     0.2309     0.0534
A_2     C     0.2188     0.7189     0.0926
A_1     C     0.2907     0.8937     0.8101
A_3     C     0.6437     0.1352     0.0959
A_3     C     0.498     0.0366     0.7983
A_0     C     0.4723     0.1627     0.71
A_1     C     0.235     0.7303     0.6191
A_0     C     0.9117     0.877     0.9482
A_1     C     0.003     0.9712     0.8905
A_1     C     0.4289     0.6687     0.3553
A_0     C     0.6004     0.0388     0.901
A_1     C     0.3778     0.6191     0.8876
A_0     C     0.6784     0.3149     0.7103
A_2     C     0.0605     0.5695     0.6595
A_2     C     0.917     0.7656     0.8065
A_2     C     0.0609     0.4396     0.7647
A_0     C     0.458     0.066     0.8431
A_3     C     0.8635     0.6502     0.7381
A_1     C     0.3736     0.2407     0.7049
A_0     C     0.2532     0.1817     0.198
A_2     C     0.3666     0.1671     0.0719
A_2     C     0.8321     0.2946     0.1082
A_0     C     0.462     0.1009     0.47
A_3     C     0.2668     0.0562     0.4002
A_0     C     0.1398     0.2872     0.132
A_3     C     0.2795     0.7302     0.6107
A_3     C     0.431     0.5217     0.2288
A_2     C     0.7375     0.6538     0.6934
A_3     C     0.7083     0.7309     0.333
A_3     C     0.8057     0.8694     0.6678
A_3     C     0.662     0.5337     0.3966
A_3     C     0.1394     0.4584     0.8262
A_3     C     0.2371     0.2293     0.0595
A_0     C     0.0734     0.2259     0.8998
A_1     C     0.6309     0.6929     0.2267
A_0     C     0.2084     0.2063     0.5251
A_2     C     0.273     0.8962     0.2985
A_1     C     0.0395     0.4906     0.3052
A_2     C     0.3906     0.2521     0.9303
A_0     C     0.5886     0.7439     0.7324
A_0     C     0.75     0.5167     0.95
A_0     C     0.5502     0.4689     0.7372
A_3     C     0.4719     0.1423     0.6858
A_2     C     0.0993     0.1492     0.9864
A_0     C     0.941     0.35     0.7889
A_0     C     0.6343     0.8676     0.9859
A_1     C     0.323     0.0713     0.0174
A_2     C     0.7903     0.2843     0.314
A_0     C     0.5829     0.312     0.0694
A_1     C     0.4815     0.011     0.5036
A_1     C     0.9451     0.9555     0.555
A_2     C     0.4067     0.7229     0.3145
A_2     C     0.5549     0.8612     0.8303
A_0     C     0.0516     0.6945     0.928
A_1     C     0.8722     0.9185     0.7677
A_0     C     0.6627     0.1066     0.5053
A_0     C     0.6389     0.1861     0.8396
A_0     C     0.7565     0.3675     0.5659
A_1     C     0.0797     0.1689     0.8182
A_3     C     0.9488     0.5333     0.7443
A_2     C     0.1127     0.4575     0.0497
A_2     C     0.2108     0.2039     0.2355
A_2     C     0.9049     0.0729     0.0251
A_3     C     0.8004     0.2004     0.4365
A_3     C     0.9915     0.5346     0.8397
A_1     C     0.6204     0.9608     0.4218
A_0     C     0.7206     0.498     0.2908
A_0     C     0.3223     0.3086     0.5477
A_0     C     0.1043     0.9786     0.0945
A_1     C     0.403     0.8094     0.1006
A_0     C     0.9905     0.6179     0.2775
A_0     C     0.161     0.5389     0.1692
A_3     C     0.8178     0.9964     0.5997
A_2     C     0.8066     0.4767     0.1611
A_0     C     0.4774     0.4519     0.6037
A_0     C     0.9297     0.9339     0.0442
A_2     C     0.2167     0.3937     0.221
A_2     C     0.1906     0.0775     0.4709
A_2     C     0.7179     0.5023     0.4707
A_1     C     0.0924     0.6573     0.7476
A_0     C     0.8126     0.2669     0.5122
A_3     C     0.382     0.1518     0.6149
A_1     C     0.1936     0.7085     0.7713
A_1     C     0.5518     0.2571     0.779
A_0     C     0.9084     0.2784     0.6564
A_0     C     0.7321     0.4145     0.3116
A_3     C     0.9246     0.7123     0.0095
A_0     C     0.786     0.9423     0.5478
A_1     C     0.9779     0.1129     0.4008
A_2     C     0.7472     0.0864     0.3375
A_2     C     0.2336     0.7511     0.6784
A_2     C     0.2116     0.1176     0.0754
A_2     C     0.4121     0.5597     0.1274
A_0     C     0.7637     0.8718     0.4143
A_3     C     0.8668     0.5726     0.5427
A_1     C     0.08     0.7972     0.9999
A_1     C     0.8968     0.209     0.0721
A_1     C     0.2226     0.5576     0.0649
A_0     C     0.2075     0.7523     0.7445
A_2     C     0.9023     0.3055     0.5013
A_2     C     0.3314     0.2354     0.1562
A_1     C     0.382     0.9117     0.4554
A_3     C     0.0446     0.4946     0.5679
A_3     C     0.4887     0.3024     0.4359
A_2     C     0.6904     0.9645     0.8281
A_3     C     0.242     0.5941     0.3086
A_2     C     0.843     0.8139     0.6771
A_2     C     0.128     0.5595     0.8752
A_1     C     0.3967     0.455     0.2691
A_3     C     0.5059     0.6897     0.8391
A_3     C     0.0265     0.8844     0.2998
A_3     C     0.6211     0.992     0.1041
A_1     C     0.5287     0.8994     0.5034
A_1     C     0.3124     0.8584     0.52
A_1     C     0.4489     0.1341     0.2042
A_2     C     0.1843     0.4429     0.9991
A_2     C     0.5956     0.3091     0.9945
A_1     C     0.7415     0.0798     0.8761
A_3     C     0.4503     0.6086     0.7444
A_0     C     0.4609     0.539     0.0145
A_1     C     0.0221     0.2468     0.0417
A_2     C     0.1617     0.7158     0.8609
A_0     C     0.0749     0.1237     0.1111
A_3     C     0.8246     0.618     0.3417
A_0     C     0.1402     0.7621     0.6486
A_2     C     0.8254     0.8842     0.4138
A_2     C     0.0968     0.2624     0.4447
A_1     C     0.1252     0.1956     0.578
A_2     C     0.4234     0.693     0.5041
A_0     C     0.1183     0.9215     0.1701
A_3     C     0.9314     0.8596     0.663
A_1     C     0.9775     0.8634     0.8069
A_0     C     0.3137     0.4321     0.9305
A_2     C     0.6064     0.8445     0.8049
A_1     C     0.2636     0.6698     0.5501
A_1     C     0.5075     0.183     0.8521
A_0     C     0.5451     0.746     0.2865
A_1     C     0.1673     0.795     0.0363
A_1     C     0.0628     0.7774     0.8074
A_1     C     0.2024     0.5535     0.1706
A_1     C     0.6187     0.0629     0.1574
A_1     C     0.0517     0.5093     0.2128
A_2     C     0.6334     0.798     0.8699
A_1     C     0.1427     0.0031     0.3176
A_3     C     0.5073     0.7646     0.3388
A_1     C     0.1128     0.4864     0.8445
A_2     C     0.4793     0.1514     0.7904
A_1     C     0.438     0.8531     0.5439
A_3     C     0.9581     0.705     0.2188
A_0     C     0.6012     0.8359     0.5186
A_2     C     0.0752     0.6875     0.4885
A_3     C     0.8168     0.5279     0.3319
A_3     C     0.3339     0.0118     0.8563
A_1     C     0.1684     0.3794     0.1386
A_3     C     0.4336     0.1859     0.1197
A_1     C     0.3915     0.8673     0.4621
A_0     C     0.8259     0.6188     0.5046
A_0     C     0.159     0.3935     0.2462
A_0     C     0.1581     0.2028     0.8806
A_2     C     0.6781     0.284     0.57
A_1     C     0.7799     0.0185     0.064
A_3     C     0.3274     0.4813     0.8699
A_0     C     0.4391     0.0333     0.3809
A_3     C     0.3872     0.0853     0.7507
A_0     C     0.1387     0.3315     0.4672
A_1     C     0.7502     0.5772     0.3051
A_0     C     0.2875     0.5982     0.0617
A_2     C     0.1085     0.6843     0.9342
A_0     C     0.0154     0.2676     0.6983
A_3     C     0.7394     0.4832     0.5474
A_1     C     0.7436     0.1827     0.1393
A_0     C     0.1983     0.4645     0.2287
A_0     C     0.0969     0.5995     0.0837
A_3     C     0.8212     0.3498     0.1996
A_0     C     0.5911     0.8677     0.5745
A_3     C     0.7145     0.7819     0.6085
A_3     C     0.5178     0.7528     0.2647
A_2     C     0.3148     0.3357     0.2363
A_1     C     0.1579     0.16     0.0684
A_3     C     0.7268     0.9711     0.1225
A_0     C     0.4101     0.3753     0.0472
A_0     C     0.8379     0.3174     0.3524
A_2     C     0.4907     0.1858     0.3879
A_0     C     0.2967     0.0672     0.1147
A_3     C     0.8224     0.2928     0.9642
A_3     C     0.007     0.6544     0.907
A_3     C     0.3672     0.5833     0.6505
A_2     C     0.8874     0.1468     0.8592
A_0     C     0.3993     0.3275     0.0217
A_1     C     0.0014     0.2417     0.0632
A_1     C     0.7917     0.3261     0.8344
A_0     C     0.5115     0.6744     0.4138
A_2     C     0.8059     0.7119     0.9325
A_0     C     0.5836     0.2673     0.5833
A_2     C     0.6562     0.3199     0.5194
A_3     C     0.349     0.7683     0.8544
A_3     C     0.1467     0.1566     0.166
A_2     C     0.9509     0.4835     0.7357
A_1     C     0.696     0.656     0.7644
A_1     C     0.2485     0.4842     0.2362
A_3     C     0.8385     0.6426     0.6076
A_0     C     0.8505     0.2716     0.9708
A_1     C     0.2618     0.5244     0.3165
A_3     C     0.9323     0.5281     0.1624
A_0     C     0.4367     0.1059     0.5982
A_3     C     0.5128     0.7357     0.8384
A_2     C     0.4558     0.4505     0.7838
A_1     C     0.1194     0.8557     0.7347
A_2     C     0.0785     0.8874     0.0117
A_3     C     0.9771     0.7597     0.9587
A_1     C     0.7802     0.869     0.7147
A_3     C     0.5554     0.2607     0.9339
A_0     C     0.1266     0.32     0.8023
A_1     C     0.3394     0.374     0.8032
A_2     C     0.8221     0.0808     0.1494
A_2     C     0.1805     0.9645     0.9603
A_2     C     0.3632     0.4998     0.706
A_0     C     0.432     0.3201     0.651
A_0     C     0.1788     0.0917     0.5838
A_0     C     0.934     0.6622     0.3971
A_3     C     0.0088     0.3766     0.3523
A_3     C     0.0214     0.2603     0.5682
A_3     C     0.3676     0.4582     0.6629
A_1     C     0.8504     0.9979     0.3285
A_3     C     0.6913     0.3992     0.0068
A_0     C     0.682     0.2505     0.2951
A_2     C     0.3449     0.8451     0.2157
A_0     C     0.0229     0.2259     0.3497
A_3     C     0.702     0.6447     0.8534
A_2     C     0.3622     0.139     0.4663
A_3     C     0.4721     0.7343     0.3411
A_0     C     0.5475     0.5922     0.9529
A_3     C     0.1952     0.5892     0.5915
A_2     C     0.0933     0.6971     0.9408
A_3     C     0.1796     0.6784     0.5144
A_1     C     0.6538     0.9924     0.7153
A_1     C     0.1281     0.7008     0.2415
A_1     C     0.0762     0.9542     0.6879
A_0     C     0.7675     0.7887     0.8227
A_1     C     0.4445     0.967     0.8305
A_3     C     0.6968     0.0446     0.0714
A_1     C     0.9727     0.2768     0.7862
A_0     C     0.4597     0.1887     0.0618
A_0     C     0.0011     0.5888     0.3433
A_3     C     0.0652     0.993     0.0805
A_0     C     0.8107     0.7291     0.424
A_1     C     0.2567     0.9997     0.5694
A_3     C     0.5711     0.6442     0.5232
A_0     C     0.4055     0.2481     0.8934
A_2     C     0.9734     0.1703     0.8272
A_1     C     0.7947     0.3427     0.4911
A_3     C     0.8268     0.1413     0.0149
A_3     C     0.487     0.1615     0.1155
A_0     C     0.9221     0.1293     0.1066
A_2     C     0.3602     0.751     0.0343
A_0     C     0.0911     0.2765     0.5511
A_1     C     0.8134     0.6276     0.6079
A_1     C     0.4271     0.5317     0.7047
A_3     C     0.4852     0.8109     0.2385
A_0     C     0.5171     0.7184     0.1717
A_2     C     0.9518     0.612     0.5144
A_3     C     0.072     0.4644     0.3826
A_1     C     0.6753     0.7977     0.1119
A_1     C     0.9637     0.7749     0.8196
A_2     C     0.0885     0.4532     0.9018
A_1     C     0.4313     0.8646     0.0077
A_2     C     0.0483     0.7709     0.4567
A_1     C     0.2189     0.402     0.8652
A_0     C     0.468     0.3362     0.4196
A_0     C     0.0882     0.4692     0.1619
A_0     C     0.5187     0.2182     0.5919
A_0     C     0.3125     0.4987     0.0888
A_2     C     0.928     0.5317     0.122
A_1     C     0.7101     0.4342     0.855
A_0     C     0.2806     0.8904     0.1101
A_3     C     0.8985     0.6325     0.5105
A_3     C     0.7989     0.2399     0.1552
A_0     C     0.9086     0.2951     0.7414
A_2     C     0.4013     0.2565     0.3272
A_3     C     0.2786     0.9437     0.4038
A_0     C     0.1216     0.5892     0.6286
A_1     C     0.1037     0.3517     0.3777
A_0     C     0.5006     0.4575     0.4362
A_3     C     0.1011     0.539     0.7484
A_3     C     0.9589     0.2256     0.8049
A_0     C     0.0287     0.2712     0.3001
A_2     C     0.5414     0.9217     0.9687
A_2     C     0.8135     0.6351     0.6814
A_0     C     0.589     0.2252     0.6041
A_3     C     0.8924     0.8559     0.436
A_3     C     0.1493     0.7863     0.5055
A_2     C     0.3308     0.3262     0.1106
A_2     C     0.839     0.8588     0.7734
A_3     C     0.6177     0.3539     0.0574
A_2     C     0.8606     0.9432     0.4034
A_3     C     0.5274     0.939     0.6261
A_2     C     0.4586     0.6692     0.7106
A_1     C     0.225     0.3943     0.9713
A_1     C     0.1238     0.5638     0.8551
A_1     C     0.2613     0.2373     0.8491
A_2     C     0.2916     0.7904     0.0168
A_2     C     0.9525     0.5237     0.4427
A_0     C     0.535     0.8837     0.2153
A_0     C     0.3465     0.4994     0.5976
A_2     C     0.4451     0.2412     0.797
A_1     C     0.7232     0.8921     0.9699
A_2     C     0.3494     0.1413     0.0685
A_3     C     0.4672     0.4141     0.6071
A_1     C     0.4778     0.0533     0.9712
A_0     C     0.3022     0.0418     0.403
A_3     C     0.9158     0.0194     0.1999
A_1     C     0.638     0.1471     0.1862
A_2     C     0.8953     0.255     0.281
A_3     C     0.2924     0.0688     0.6482
A_1     C     0.645     0.1601     0.6546
A_3     C     0.6245     0.104     0.6032
A_0     C     0.2803     0.5709     0.0291
A_1     C     0.3404     0.793     0.8603
A_3     C     0.5136     0.6408     0.0777
A_0     C     0.1689     0.8696     0.1225
A_1     C     0.9767     0.3511     0.2787
A_0     C     0.2311     0.3628     0.9911
A_3     C     0.2652     0.449     0.947
A_0     C     0.3628     0.7315     0.5788
A_2     C     0.4456     0.5594     0.1547
A_0     C     0.8626     0.4137     0.2878
A_2     C     0.5307     0.6172     0.6907
A_0     C     0.2401     0.9102     0.084
A_2     C     0.4771     0.3054     0.2243
A_2     C     0.6333     0.0829     0.8356
A_0     C     0.8499     0.1198     0.4522
A_2     C     0.4364     0.7795     0.7439
A_3     C     0.1905     0.5977     0.4479
A_3     C     0.2509     0.2838     0.3171
A_1     C     0.0261     0.9296     0.6632
A_1     C     0.7433     0.9109     0.2483
A_0     C     0.6674     0.0951     0.0542
A_2     C     0.7756     0.075     0.9699
A_1     C     0.5487     0.6374     0.7517
A_3     C     0.8137     0.8016     0.7798
A_0     C     0.8753     0.535     0.3208
A_0     C     0.1291     0.1307     0.255
A_1     C     0.7593     0.8337     0.9792
A_3     C     0.4191     0.8272     0.7289
A_1     C     0.7979     0.6565     0.148
A_2     C     0.7978     0.0487     0.7952
A_1     C     0.9829     0.8524     0.8439
A_3     C     0.5859     0.4567     0.6674
A_0     C     0.8341     0.9948     0.9867
A_3     C     0.5835     0.5345     0.712
A_0     C     0.8406     0.2657     0.5621
A_0     C     0.0793     0.1702     0.2209
A_0     C     0.2078     0.699     0.1334
A_0     C     0.8917     0.9709     0.084
A_0     C     0.76     0.0202     0.4768
A_0     C     0.8565     0.3919     0.8037
A_3     C     0.8085     0.5228     0.0769
A_0     C     0.0687     0.0125     0.7494
A_1     C     0.4465     0.6815     0.2937
A_0     C     0.7174     0.8003     0.4108
A_3     C     0.5476     0.2397     0.1117
A_3     C     0.8048     0.5013     0.2651
A_3     C     0.2674     0.0445     0.9333
A_3     C     0.6933     0.0135     0.219
A_1     C     0.9384     0.5332     0.2293
A_2     C     0.2297     0.7492     0.3872
A_3     C     0.0211     0.2824     0.7858
A_0     C     0.4618     0.8059     0.8679
A_0     C     0.3588     0.1575     0.509
A_2     C     0.6725     0.1099     0.6975
A_2     C     0.7645     0.4966     0.3416
A_1     C     0.8105     0.0599     0.4549
A_0     C     0.418     0.0939     0.7682
A_2     C     0.2787     0.1962     0.5881
A_1     C     0.1563     0.6077     0.3205
A_0     C     0.2856     0.9128     0.8935
A_2     C     0.3253     0.7108     0.6397
A_0     C     0.2114     0.9158     0.7837
A_0     C     0.1038     0.207     0.7704
A_2     C     0.5193     0.478     0.9658
A_3     C     0.1524     0.6381     0.2035
A_1     C     0.1376     0.6959     0.1182
A_3     C     0.0398     0.589     0.1053
A_2     C     0.7315     0.4521     0.745
A_2     C     0.0042     0.9579     0.688
A_3     C     0.7536     0.0697     0.9982
A_2     C     0.4435     0.3161     0.0201
A_3     C     0.2351     0.1086     0.9769
A_3     C     0.0353     0.5174     0.7043
A_3     C     0.8662     0.8906     0.8372
A_0     C     0.58     0.5941     0.3003
A_3     C     0.6702     0.3117     0.1388
A_0     C     0.8215     0.1713     0.9374
A_2     C     0.6638     0.5785     0.4079
A_0     C     0.3389     0.0853     0.3344
A_3     C     0.9657     0.7875     0.7102
A_2     C     0.0348     0.0692     0.8905
A_1     C     0.9197     0.1215     0.0069
A_1     C     0.9545     0.1354     0.9507
A_2     C     0.3719     0.0839     0.7576
A_2     C     0.9133     0.0955     0.3879
A_3     C     0.4836     0.8285     0.9988
A_2     C     0.8396     0.7393     0.3675
A_3     C     0.2844     0.5431     0.6353
A_0     C     0.4918     0.7599     0.421
A_2     C     0.1244     0.1927     0.8935
A_0     C     0.4305     0.8441     0.7487
A_2     C     0.9171     0.7887     0.3961
A_3     C     0.2642     0.9847     0.0907
A_3     C     0.6449     0.6395     0.1713
A_2     C     0.6594     0.2263     0.7943
A_1     C     0.336     0.8065     0.7222
A_0     C     0.7357     0.4519     0.98
A_3     C     0.8548     0.0884     0.2833
A_2     C     0.2127     0.5251     0.6825
A_2     C     0.598     0.3615     0.0263
A_2     C     0.1322     0.3783     0.8339
A_2     C     0.4206     0.0639     0.69
A_1     C     0.1629     0.8495     0.6076
A_2     C     0.0532     0.4126     0.8146
A_3     C     0.6162     0.5088     0.9823
A_2     C     0.5197     0.284     0.9196
A_1     C     0.2693     0.5235     0.6782
A_0     C     0.5949     0.5926     0.1516
A_2     C     0.6973     0.1046     0.9605
A_3     C     0.7894     0.9033     0.5442
A_0     C     0.1059     0.5257     0.8284
A_0     C     0.5421     0.2914     0.8261
A_3     C     0.3578     0.6785     0.0069
A_0     C     0.0024     0.2096     0.5278
A_1     C     0.1579     0.5678     0.0442
A_1     C     0.9498     0.5285     0.3407
A_1     C     0.4683     0.2873     0.2942
A_1     C     0.5916     0.1156     0.5389
A_2     C     0.4077     0.3893     0.1678
A_0     C     0.5318     0.3174     0.6653
A_1     C     0.1021     0.594     0.4092
A_3     C     0.0153     0.2159     0.0148
A_3     C     0.1363     0.1493     0.854
A_2     C     0.987     0.7222     0.4257
A_3     C     0.8737     0.852     0.1259
A_1     C     0.5192     0.6274     0.9686
A_3     C     0.802     0.5544     0.6456
A_3     C     0.8361     0.5883     0.7878
A_2     C     0.4504     0.3378     0.6237
A_2     C     0.7253     0.2363     0.1537
A_3     C     0.39     0.511     0.9133
A_0     C     0.5481     0.018     0.8321
A_2     C     0.6236     0.7415     0.5398
A_0     C     0.1241     0.9436     0.5609
A_3     C     0.057     0.0295     0.6185
A_0     C     0.8106     0.5931     0.0254
A_3     C     0.8057     0.7033     0.2576
A_3     C     0.8738     0.4969     0.8937
A_1     C     0.5189     0.0683     0.4402
A_1     C     0.3967     0.4855     0.0554
A_0     C     0.4499     0.1015     0.2928
A_2     C     0.7787     0.9145     0.8445
A_3     C     0.6858     0.0229     0.701
A_0     C     0.4615     0.9522     0.335
A_2     C     0.6417     0.5015     0.6128
A_0     C     0.0625     0.6027     0.4882
A_2     C     0.2251     0.8429     0.0218
A_3     C     0.1753     0.7809     0.2393
A_2     C     0.002     0.306     0.091
A_3     C     0.6928     0.4569     0.473
A_1     C     0.5478     0.6443     0.5497
A_3     C     0.9168     0.5232     0.4234
A_2     C     0.3269     0.9374     0.3835
A_0     C     0.029     0.5266     0.8489
A_0     C     0.4806     0.8242     0.403
A_3     C     0.9282     0.7216     0.6884
A_0     C     0.6678     0.3752     0.5725
A_3     C     0.8755     0.0787     0.1603
A_3     C     0.0099     0.3504     0.2409
A_1     C     0.6161     0.3862     0.5461
A_2     C     0.9285     0.861     0.6768
A_2     C     0.7071     0.7724     0.0611
A_3     C     0.3704     0.7101     0.0386
A_0     C     0.719     0.7604     0.0177
A_3     C     0.4237     0.7336     0.5834
A_0     C     0.7973     0.7881     0.5684
A_3     C     0.5106     0.8884     0.838
A_1     C     0.6122     0.148     0.7299
A_2     C     0.2463     0.9281     0.3735
A_2     C     0.0204     0.2117     0.7577
A_0     C     0.5678     0.8066     0.7565
A_3     C     0.9366     0.4434     0.1452
A_2     C     0.0175     0.5763     0.65
A_3     C     0.5224     0.9595     0.4422
A_1     C     0.3187     0.2146     0.7715
A_3     C     0.6365     0.9921     0.8577
A_1     C     0.6378     0.5952     0.7621
A_1     C     0.6794     0.4155     0.8884
A_1     C     0.9705     0.2445     0.694
A_3     C     0.9712     0.9817     0.3722
A_0     C     0.3152     0.8912     0.8611
A_1     C     0.867     0.3409     0.5534
A_2     C     0.851     0.1993     0.7931
A_1     C     0.3453     0.0526     0.9571
A_2     C     0.9948     0.4203     0.4999
A_3     C     0.698     0.5885     0.0645
A_3     C     0.5861     0.3074     0.7349
A_3     C     0.7551     0.3355     0.1836
A_0     C     0.6843     0.7767     0.2139
A_0     C     0.0572     0.5661     0.5425
A_3     C     0.9699     0.9618     0.2769
A_3     C     0.6062     0.0185     0.897
A_2     C     0.5198     0.8932     0.2314
A_3     C     0.7628     0.5024     0.8966
A_1     C     0.1913     0.6681     0.0696
A_0     C     0.5473     0.6754     0.2889
A_1     C     0.2361     0.9968     0.3368
A_0     C     0.7679     0.9013     0.5326
A_1     C     0.0783     0.2458     0.4232
A_0     C     0.5439     0.8403     0.823
A_0     C     0.899     0.6299     0.0439
A_0     C     0.3448     0.9241     0.3241
A_1     C     0.8958     0.6091     0.6424
A_2     C     0.0284     0.7962     0.7014
A_2     C     0.0139     0.6134     0.6631
A_0     C     0.843     0.1135     0.0049
A_2     C     0.8878     0.5816     0.0362
A_2     C     0.0567     0.7173     0.704
A_0     C     0.1752     0.8283     0.8822
A_0     C     0.6443     0.9543     0.3843
A_2     C     0.2199     0.1983     0.8273
A_0     C     0.4811     0.4478     0.4211
A_3     C     0.9009     0.1404     0.9776
A_2     C     0.5231     0.515     0.3112
A_3     C     0.3089     0.0176     0.3114
A_2     C     0.1194     0.6745     0.6701
A_3     C     0.0669     0.9264     0.7016
A_0     C     0.9372     0.8795     0.3471
A_0     C     0.1699     0.052     0.3251
A_3     C     0.2833     0.2647     0.5785
A_0     C     0.6534     0.9355     0.7282
A_2     C     0.4687     0.4038     0.3574
A_0     C     0.5933     0.6422     0.9902
A_1     C     0.1261     0.1028     0.7592
A_3     C     0.2593     0.8373     0.2757
A_1     C     0.0455     0.6819     0.1209
A_0     C     0.038     0.0259     0.7492
A_1     C     0.9886     0.8543     0.814
A_0     C     0.3898     0.4015     0.1156
A_0     C     0.4621     0.8404     0.3742
A_0     C     0.3665     0.4724     0.3279
A_2     C     0.9683     0.7473     0.388
A_3     C     0.9998     0.4904     0.8667
A_1     C     0.8062     0.4008     0.1238
A_0     C     0.0521     0.0055     0.3997
A_1     C     0.7871     0.3552     0.5856
A_3     C     0.5207     0.523     0.0691
A_3     C     0.3153     0.7955     0.9018
A_3     C     0.224     0.299     0.3525
A_0     C     0.0042     0.3186     0.368
A_3     C     0.4562     0.5965     0.5316
A_3     C     0.1414     0.4786     0.0426
A_1     C     0.7171     0.664     0.9902
A_3     C     0.4996     0.858     0.0317
A_3     C     0.1562     0.0775     0.446
A_2     C     0.2836     0.4038     0.425
A_0     C     0.3228     0.3473     0.9274
A_0     C     0.6714     0.7367     0.2601
A_3     C     0.3194     0.1252     0.832
A_2     C     0.8976     0.3761     0.4301
A_2     C     0.9252     0.5975     0.7831
A_1     C     0.4246     0.6255     0.0428
A_1     C     0.0241     0.8407     0.5617
A_1     C     0.3016     0.4669     0.4371
A_2     C     0.0138     0.9529     0.9002
A_3     C     0.3469     0.1054     0.441
A_0     C     0.4744     0.5001     0.1423
A_1     C     0.3213     0.2307     0.033
A_2     C     0.2402     0.0602     0.8085
A_2     C     0.9522     0.219     0.6174
A_3     C     0.7777     0.8429     0.7305
A_0     C     0.3479     0.3274     0.8539
A_1     C     0.0435     0.5518     0.3935
A_2     C     0.5095     0.3161     0.7755
A_3     C     0.7877     0.2525     0.4982
A_1     C     0.8206     0.6273     0.5738
A_0     C     0.4529     0.6762     0.2838
A_1     C     0.9759     0.0722     0.9767
A_2     C     0.4632     0.365     0.3024
A_1     C     0.4446     0.1276     0.2793
A_2     C     0.0703     0.7878     0.4488
A_1     C     0.1443     0.5125     0.4973
A_0     C     0.811     0.0162     0.6343
A_0     C     0.723     0.3943     0.3151
A_0     C     0.8208     0.118     0.7368
A_2     C     0.0071     0.24     0.616
A_2     C     0.7881     0.8953     0.0849
A_1     C     0.872     0.7559     0.9814
A_1     C     0.5126     0.6589     0.5716
A_3     C     0.0601     0.3456     0.7567
A_1     C     0.9795     0.8976     0.6281
A_1     C     0.0932     0.5956     0.7105
A_0     C     0.5438     0.9477     0.0147
A_2     C     0.7231     0.0486     0.2751
A_2     C     0.2477     0.1015     0.5179
A_1     C     0.4001     0.6716     0.4535
A_1     C     0.5308     0.7082     0.093
A_1     C     0.2499     0.879     0.6456
A_2     C     0.7291     0.2717     0.9618
A_1     C     0.3348     0.64     0.5033
A_0     C     0.7566     0.1484     0.9563
A_2     C     0.7543     0.5013     0.8319
A_0     C     0.4058     0.1516     0.345
A_2     C     0.9414     0.6469     0.7044
A_3     C     0.8328     0.3723     0.0903
A_1     C     0.2934     0.9059     0.8687
A_3     C     0.7489     0.2855     0.4113
A_2     C     0.6301     0.6929     0.33
A_0     C     0.6543     0.9977     0.7156
A_3     C     0.1839     0.973     0.5389
A_2     C     0.6931     0.2767     0.6103
A_3     C     0.984     0.8246     0.4418
A_2     C     0.4164     0.3659     0.3815
A_3     C     0.8312     0.4587     0.0745
A_0     C     0.7176     0.6465     0.5064
A_1     C     0.4645     0.7974     0.1866
A_0     C     0.0719     0.1802     0.2642
A_3     C     0.7728     0.5833     0.1759
A_1     C     0.5321     0.9003     0.9043
A_3     C     0.9112     0.2961     0.6419
A_3     C     0.9445     0.2577     0.5149
A_0     C     0.5409     0.2614     0.7144
A_0     C     0.5969     0.9378     0.9966
A_3     C     0.6556     0.2216     0.8238
A_3     C     0.5034     0.3444     0.1647
A_0     C     0.2296     0.8673     0.3469
A_2     C     0.2373     0.9384     0.3353
A_3     C     0.8593     0.7646     0.8106
A_2     C     0.2324     0.0467     0.8372
A_0     C     0.3566     0.2254     0.2902
A_1     C     0.6309     0.1684     0.0966
A_1     C     0.3607     0.2182     0.6719
A_3     C     0.5508     0.86     0.0631
A_1     C     0.6494     0.5776     0.2199
A_0     C     0.3951     0.5102     0.5344
A_1     C     0.6525     0.6707     0.8644
A_0     C     0.6076     0.739     0.5895
A_0     C     0.1272     0.1546     0.1821
A_1     C     0.1498     0.5724     0.097
A_3     C     0.7286     0.4051     0.6852
A_1     C     0.1959     0.8594     0.3587
A_0     C     0.1676     0.8206     0.6146
A_1     C     0.5749     0.9857     0.5648
A_1     C     0.2847     0.3206     0.2962
A_0     C     0.7253     0.1821     0.0734
A_3     C     0.4483     0.2936     0.603
A_0     C     0.1577     0.63     0.6341
A_1     C     0.3694     0.1564     0.8253
A_1     C     0.313     0.8316     0.7849
A_1     C     0.662     0.656     0.9661
A_0     C     0.4913     0.9103     0.3935
A_0     C     0.6078     0.9374     0.3531
A_0     C     0.0119     0.1972     0.7474
A_2     C     0.5638     0.3438     0.075
A_0     C     0.8003     0.4863     0.0083
A_0     C     0.0028     0.3223     0.1047
A_3     C     0.3619     0.9534     0.3618
A_0     C     0.9139     0.9451     0.6622
A_3     C     0.911     0.6736     0.3041
A_1     C     0.075     0.2323     0.7309
A_0     C     0.5163     0.8287     0.5724
A_0     C     0.2756     0.9576     0.7683
A_2     C     0.4234     0.4036     0.354
A_2     C     0.493     0.8954     0.4499
A_3     C     0.4506     0.1179     0.9176
A_0     C     0.9581     0.6958     0.4337
A_2     C     0.0365     0.3641     0.4863
A_3     C     0.3945     0.8521     0.0564
A_3     C     0.6328     0.523     0.7504
A_3     C     0.9029     0.9018     0.0805
A_2     C     0.0058     0.2319     0.4843
A_0     C     0.7467     0.7842     0.5027
A_3     C     0.3396     0.4739     0.0755
A_3     C     0.5993     0.3299     0.1326
A_0     C     0.5686     0.02     0.8505
A_0     C     0.9021     0.8456     0.0776
A_3     C     0.9322     0.39     0.0751
A_2     C     0.4949     0.4332     0.0366
A_0     C     0.9426     0.8604     0.2597
A_2     C     0.5576     0.1648     0.5731
A_3     C     0.4054     0.2872     0.4924
A_2     C     0.5364     0.9673     0.7852
A_3     C     0.3876     0.3227     0.5029
A_0     C     0.452     0.1246     0.9164
A_2     C     0.1905     0.4114     0.9339
A_0     C     0.171     0.7417     0.9253
A_2     C     0.028     0.3248     0.9079
A_3     C     0.4434     0.4069     0.5429
A_3     C     0.9343     0.1344     0.9688
A_2     C     0.4298     0.0418     0.7325
A_1     C     0.8468     0.5416     0.1629
A_0     C     0.6329     0.6111     0.2831
A_1     C     0.4778     0.5842     0.1887
A_0     C     0.3035     0.4229     0.987
A_3     C     0.9312     0.0245     0.4857
A_1     C     0.0308     0.4537     0.265
A_0     C     0.3181     0.153     0.3827
A_1     C     0.0368     0.8355     0.1554
A_3     C     0.9983     0.0789     0.6518
A_0     C     0.6033     0.4558     0.427
A_1     C     0.1606     0.425     0.08
A_1     C     0.0809     0.0104     0.2534
A_0     C     0.1874     0.3108     0.7094
A_0     C     0.3943     0.4341     0.1775
A_2     C     0.6998     0.409     0.7078
A_2     C     0.9086     0.5256     0.6183
A_1     C     0.255     0.5958     0.2068
A_3     C     0.3034     0.0912     0.9238
A_2     C     0.8923     0.3306     0.7775
A_2     C     0.9627     0.5147     0.6924
A_3     C     0.4392     0.7802     0.8549
A_2     C     0.1025     0.8593     0.3342
A_1     C     0.6554     0.8946     0.9314
A_0     C     0.3874     0.4262     0.787
A_2     C     0.5917     0.9519     0.7753
A_1     C     0.4144     0.4093     0.8146
A_2     C     0.7436     0.6086     0.5547
A_3     C     0.2788     0.594     0.5649
A_3     C     0.6947     0.7823     0.3551
A_1     C     0.645     0.9606     0.479
A_2     C     0.3944     0.4929     0.9578
A_3     C     0.6958     0.4408     0.8403
A_1     C     0.229     0.88     0.944
A_0     C     0.8842     0.4773     0.6732
A_1     C     0.875     0.4538     0.1211
A_1     C     0.5257     0.0266     0.7207
A_3     C     0.3379     0.0075     0.7476
A_3     C     0.5441     0.4291     0.5953
A_0     C     0.722     0.568     0.9465
A_1     C     0.9968     0.1674     0.9687
A_0     C     0.4856     0.1246     0.1971
A_1     C     0.8936     0.3002     0.2787
A_1     C     0.8653     0.3614     0.6481
A_0     C     0.7573     0.3991     0.8695
A_2     C     0.9709     0.7208     0.6053
A_2     C     0.5071     0.681     0.6119
A_0     C     0.2435     0.8313     0.8554
A_1     C     0.4377     0.1591     0.0655
A_2     C     0.1333     0.0465     0.8407
A_3     C     0.7604     0.5915     0.4185
A_2     C     0.501     0.3428     0.3251
A_0     C     0.0118     0.0746     0.6176
A_0     C     0.5604     0.4043     0.416
A_0     C     0.4149     0.9794     0.006
A_1     C     0.8486     0.2358     0.1317
A_0     C     0.5386     0.8673     0.8976
A_0     C     0.7467     0.0797     0.3026
A_2     C     0.1502     0.3154     0.1157
A_2     C     0.087     0.8201     0.5491
A_0     C     0.2002     0.8023     0.0439
A_2     C     0.8734     0.7545     0.4209
A_2     C     0.7247     0.1841     0.8101
A_1     C     0.4185     0.1737     0.2446
A_3     C     0.1797     0.756     0.8209
A_0     C     0.5658     0.2999     0.7597
A_2     C     0.7786     0.7973     0.8072
A_3     C     0.2109     0.3397     0.0486
A_3     C     0.0391     0.1552     0.15
A_0     C     0.2838     0.5242     0.0618
A_3     C     0.3863     0.7789     0.4496
A_0     C     0.914     0.5888     0.9406
A_2     C     0.6735     0.3439     0.7931
A_3     C     0.6554     0.7215     0.1786
A_1     C     0.0378     0.3807     0.5982
A_2     C     0.3374     0.6407     0.471
A_2     C     0.9718     0.1508     0.8102
A_1     C     0.0166     0.0624     0.1379
A_2     C     0.3673     0.5018     0.3507
A_3     C     0.5488     0.554     0.046
A_2     C     0.7769     0.2094     0.7181
A_0     C     0.7875     0.3195     0.4493
A_1     C     0.55     0.8819     0.312
A_3     C     0.5711     0.8225     0.2818
A_3     C     0.0492     0.4481     0.7275
A_3     C     0.2138     0.7673     0.1906
A_0     C     0.9068     0.3058     0.7901
A_1     C     0.2496     0.5676     0.6524
A_0     C     0.7114     0.1465     0.7795
A_3     C     0.3181     0.3094     0.6705
A_3     C     0.4825     0.9227     0.587
A_2     C     0.8091     0.7155     0.3301
A_0     C     0.5345     0.9762     0.8985
A_3     C     0.6328     0.9777     0.922
A_2     C     0.3125     0.3239     0.4408
A_2     C     0.7713     0.762     0.4508
A_0     C     0.7692     0.5267     0.8337
A_2     C     0.3421     0.0469     0.8039
A_2     C     0.1474     0.6978     0.7972
A_2     C     0.269     0.0404     0.4997
A_3     C     0.479     0.1494     0.236
A_2     C     0.2144     0.4809     0.2917
A_3     C     0.9444     0.125     0.2992
A_1     C     0.2518     0.5513     0.3822
A_3     C     0.4899     0.6641     0.3801
A_2     C     0.621     0.6265     0.0462
A_3     C     0.8061     0.4661     0.1588
A_2     C     0.0279     0.789     0.9506
A_1     C     0.7059     0.8528     0.2413
A_0     C     0.486     0.0397     0.3939
A_3     C     0.4999     0.392     0.7551
A_2     C     0.5833     0.855     0.3819
A_0     C     0.8796     0.6191     0.7338
A_0     C     0.9489     0.4773     0.0826
A_1     C     0.8182     0.5104     0.0399
A_3     C     0.9317     0.7756     0.5159
A_2     C     0.0057     0.6504     0.5297
A_3     C     0.1912     0.85     0.2628
A_0     C     0.3649     0.3121     0.1303
A_1     C     0.8347     0.954     0.3706
A_1     C     0.0045     0.7588     0.8796
A_0     C     0.5374     0.4968     0.9048
A_1     C     0.5437     0.0089     0.1225
A_3     C     0.0561     0.5045     0.9071
A_3     C     0.0617     0.6782     0.4331
A_1     C     0.6607     0.2712     0.6627
A_2     C     0.5921     0.9977     0.0277
A_2     C     0.4737     0.0661     0.64
A_3     C     0.2575     0.2076     0.8014
A_2     C     0.5222     0.4214     0.2659
A_2     C     0.524     0.4028     0.1114
A_2     C     0.1643     0.5899     0.3507
A_1     C     0.8036     0.024     0.7746
A_2     C     0.0091     0.509     0.128
A_2     C     0.3596     0.3436     0.3572
A_3     C     0.9174     0.9219     0.1325
A_3     C     0.8807     0.456     0.8152
A_1     C     0.4394     0.2465     0.8228
A_2     C     0.2069     0.556     0.7464
A_0     C     0.9592     0.0304     0.5042
A_1     C     0.3684     0.4182     0.8629
A_1     C     0.7959     0.718     0.9039
A_2     C     0.5711     0.2006     0.6893
A_1     C     0.6783     0.9304     0.8331
A_0     C     0.2739     0.681     0.4173
A_0     C     0.5774     0.8292     0.9483
A_0     C     0.2338     0.8618     0.4996
A_3     C     0.3143     0.1802     0.0499
A_0     C     0.0483     0.0401     0.3087
A_2     C     0.545     0.2465     0.1243
A_1     C     0.4503     0.6998     0.8661
A_0     C     0.5749     0.0724     0.9783
A_0     C     0.1793     0.1591     0.5101
A_1     C     0.6882     0.5809     0.9091
A_3     C     0.7525     0.0736     0.553
A_1     C     0.7749     0.7492     0.6763
A_0     C     0.0783     0.4949     0.9962
A_0     C     0.3583     0.2245     0.8218
A_3     C     0.7351     0.9884     0.2511
A_3     C     0.4441     0.0858     0.1797
A_0     C     0.3959     0.7418     0.984
A_1     C     0.4791     0.5517     0.9453
A_0     C     0.3488     0.082     0.5995
A_3     C     0.5822     0.1668     0.9852
A_3     C     0.2734     0.9019     0.5145
A_2     C     0.3753     0.715     0.4741
A_1     C     0.7065     0.4197     0.8829
A_2     C     0.0708     0.1116     0.4987
A_3     C     0.8704     0.1763     0.4915
A_3     C     0.9901     0.1679     0.3391
A_1     C     0.27     0.6837     0.7852
A_0     C     0.7359     0.1609     0.7908
A_0     C     0.9738     0.9166     0.9801
A_2     C     0.7867     0.0608     0.1139
A_1     C     0.1586     0.021     0.0684
A_2     C     0.3023     0.1588     0.8741
A_1     C     0.3524     0.3259     0.0229
A_0     C     0.1337     0.4461     0.5803
A_2     C     0.0352     0.2974     0.0849
A_1     C     0.1874     0.1304     0.4707
A_0     C     0.3682     0.6893     0.8025
A_2     C     0.8612     0.2174     0.267
A_0     C     0.2091     0.9644     0.5967
A_1     C     0.8145     0.7154     0.6958
A_1     C     0.9199     0.877     0.6621
A_3     C     0.5013     0.438     0.6666
A_2     C     0.3121     0.3365     0.913
A_1     C     0.4788     0.1433     0.1695
A_3     C     0.6149     0.624     0.9406
A_1     C     0.5837     0.3954     0.8956
A_1     C     0.1142     0.8145     0.0663
A_2     C     0.3203     0.5993     0.174
A_0     C     0.4329     0.3347     0.2818
A_0     C     0.0434     0.3225     0.6364
A_2     C     0.6288     0.9767     0.0755
A_0     C     0.993     0.8407     0.4815
A_3     C     0.7132     0.8607     0.6809
A_2     C     0.9993     0.0753     0.7523
A_0     C     0.2892     0.1427     0.2223
A_3     C     0.532     0.0678     0.3703
A_1     C     0.9052     0.4864     0.7205
A_2     C     0.4853     0.9973     0.316
A_1     C     0.5386     0.7889     0.0905
A_2     C     0.1494     0.072     0.6888
A_3     C     0.4307     0.6915     0.4706
A_3     C     0.4114     0.1549     0.0102
A_0     C     0.311     0.2508     0.9019
A_3     C     0.1813     0.4758     0.6172
A_3     C     0.4316     0.6536     0.734
A_0     C     0.7033     0.2049     0.2682
A_2     C     0.6164     0.5196     0.9934
A_1     C     0.0398     0.8418     0.7814
A_2     C     0.5565     0.016     0.2474
A_0     C     0.4004     0.0475     0.7345
A_0     C     0.4442     0.415     0.619
A_2     C     0.2239     0.0202     0.9949
A_2     C     0.0984     0.0325     0.0038
A_1     C     0.8495     0.856     0.6017
A_3     C     0.8922     0.6949     0.8553
A_3     C     0.7275     0.0565     0.1569
A_1     C     0.2854     0.3119     0.2853
A_2     C     0.7165     0.425     0.0314
A_2     C     0.818     0.6504     0.9546
A_2     C     0.1096     0.1271     0.4123
A_0     C     0.8742     0.889     0.7399
A_1     C     0.0924     0.612     0.4755
A_3     C     0.6034     0.9962     0.8721
A_0     C     0.6437     0.6834     0.6849
A_2     C     0.1765     0.8342     0.5338
A_2     C     0.0199     0.3804     0.7163
A_1     C     0.5454     0.3762     0.3326
A_2     C     0.101     0.3695     0.3184
A_2     C     0.126     0.7796     0.006
