MAT-25

loop_
_symmetry_equiv_pos_as_xyz
  x,y,z
_cell_length_a          34.1679
_cell_length_b          18.2195
_cell_length_c          29.08
_cell_angle_alpha       90.0000
_cell_angle_beta        90.0000
_cell_angle_gamma       90.0000
loop_
_atom_site_label
_atom_site_type_symbol
_atom_site_fract_x
_atom_site_fract_y
_atom_site_fract_z
A_2     C     0.7363     0.5622     0.9577
A_0     C     0.7423     0.5474     0.7207
A_1     C     0.674     0.6298     0.4116
A_2     C     0.1624     0.9234     0.9545
A_1     C     0.6457     0.8692     0.3732
A_2     C     0.0559     0.6266     0.4839
A_1     C     0.2839     0.3411     0.566
A_0     C     0.017     0.3924     0.407
A_3     C     0.8277     0.3594     0.2647
A_0     C     0.9736     0.2485     0.4866
A_1     C     0.396     0.0424     0.6821
A_0     C     0.994     0.7645     0.4601
A_1     C     0.0349     0.3135     0.3484
A_3     C     0.2634     0.8643     0.1333
A_2     C     0.805     0.7494     0.4502
A_1     C     0.7373     0.4103     0.0066
A_1     C     0.6731     0.8775     0.1797
A_3     C     0.3492     0.2312     0.3585
A_0     C     0.4877     0.1031     0.9283
A_1     C     0.3292     0.024     0.5737
A_3     C     0.0887     0.1058     0.2265
A_2     C     0.6049     0.5984     0.9498
A_0     C     0.5267     0.7086     0.138
A_2     C     0.4243     0.2645     0.7099
A_2     C     0.4079     0.8329     0.4165
A_1     C     0.7203     0.4251     0.9609
A_3     C     0.1341     0.3177     0.1261
A_2     C     0.8301     0.4399     0.3858
A_0     C     0.468     0.7943     0.0342
A_0     C     0.2227     0.646     0.224
A_0     C     0.9705     0.64     0.4201
A_0     C     0.5547     0.4508     0.8109
A_1     C     0.1407     0.58     0.4491
A_2     C     0.0304     0.2193     0.6099
A_1     C     0.8684     0.2848     0.5158
A_0     C     0.9981     0.0797     0.9121
A_1     C     0.5191     0.3972     0.6089
A_3     C     0.5049     0.1346     0.3329
A_1     C     0.9693     0.6712     0.2687
A_0     C     0.8371     0.2491     0.2072
A_2     C     0.2794     0.7868     0.6198
A_0     C     0.4476     0.3155     0.6978
A_2     C     0.4759     0.2414     0.1437
A_2     C     0.108     0.7103     0.1369
A_0     C     0.5467     0.9904     0.4718
A_0     C     0.3636     0.3994     0.3808
A_3     C     0.0191     0.9483     0.0946
A_3     C     0.7903     0.9974     0.2184
A_2     C     0.3453     0.2935     0.1645
A_3     C     0.8956     0.0244     0.8229
A_0     C     0.8081     0.1324     0.2972
A_0     C     0.2381     0.0439     0.3261
A_2     C     0.518     0.1073     0.6805
A_2     C     0.0984     0.4585     0.0843
A_0     C     0.1654     0.3277     0.3598
A_1     C     0.3156     0.7714     0.3074
A_0     C     0.0559     0.694     0.5323
A_3     C     0.4862     0.7569     0.1914
A_2     C     0.4848     0.4147     0.9107
A_0     C     0.0701     0.3906     0.3823
A_0     C     0.4312     0.2859     0.0468
A_0     C     0.3057     0.2106     0.8665
A_0     C     0.1023     0.5039     0.5273
A_2     C     0.5874     0.6496     0.1026
A_0     C     0.9807     0.0444     0.132
A_2     C     0.4154     0.1466     0.8306
A_3     C     0.9325     0.5665     0.4118
A_3     C     0.6786     0.7319     0.6843
A_3     C     0.2346     0.6259     0.4708
A_1     C     0.0552     0.8872     0.8811
A_2     C     0.548     0.5365     0.3771
A_0     C     0.1074     0.5676     0.4508
A_2     C     0.4373     0.0991     0.3407
A_2     C     0.956     0.8262     0.63
A_3     C     0.0238     0.9592     0.9752
A_3     C     0.3718     0.949     0.5336
A_1     C     0.2248     0.4019     0.871
A_1     C     0.9221     0.9495     0.1564
A_1     C     0.3712     0.7879     0.5085
A_1     C     0.4939     0.9786     0.1585
A_0     C     0.5794     0.46     0.4731
A_0     C     0.3577     0.7516     0.2817
A_1     C     0.5691     0.5068     0.6232
A_2     C     0.478     0.4542     0.6129
A_3     C     0.7429     0.6129     0.4009
A_3     C     0.702     0.5276     0.7453
A_0     C     0.0406     0.189     0.1917
A_0     C     0.3804     0.8676     0.7693
A_3     C     0.3771     0.037     0.3685
A_2     C     0.7337     0.0121     0.4607
A_2     C     0.9378     0.5202     0.148
A_2     C     0.4898     0.9733     0.4051
A_3     C     0.1235     0.33     0.4526
A_3     C     0.8347     0.8362     0.7009
A_1     C     0.6535     0.0705     0.0367
A_3     C     0.5476     0.65     0.9473
A_1     C     0.5674     0.5069     0.6351
A_0     C     0.3851     0.8102     0.9153
A_0     C     0.603     0.4286     0.289
A_2     C     0.1981     0.4695     0.9582
A_3     C     0.8584     0.6952     0.839
A_2     C     0.3262     0.6974     0.0561
A_0     C     0.3394     0.3543     0.7552
A_0     C     0.5788     0.7688     0.3528
A_3     C     0.4077     0.155     0.4361
A_2     C     0.3538     0.165     0.6232
A_2     C     0.761     0.1213     0.1435
A_1     C     0.0476     0.2935     0.1976
A_0     C     0.3775     0.0289     0.3552
A_2     C     0.9254     0.6264     0.044
A_1     C     0.9002     0.8245     0.1081
A_0     C     0.4219     0.1498     0.5527
A_1     C     0.4552     0.3581     0.9241
A_1     C     0.5227     0.1259     0.8274
A_0     C     0.4537     0.4333     0.9546
A_0     C     0.1218     0.2495     0.5243
A_0     C     0.3862     0.858     0.3201
A_1     C     0.4434     0.6781     0.1553
A_2     C     0.4393     0.4635     0.8067
A_3     C     0.8047     0.9846     0.7659
A_2     C     0.5712     0.2049     0.964
A_1     C     0.0708     0.0989     0.1314
A_2     C     0.442     0.2307     0.8001
A_1     C     0.9028     0.565     0.0797
A_2     C     0.5274     0.4539     0.6323
A_0     C     0.757     0.3012     0.6277
A_3     C     0.3552     0.2028     0.5916
A_3     C     0.4156     0.8468     0.4886
A_0     C     0.1884     0.1896     0.1814
A_3     C     0.0491     0.3982     0.0183
A_2     C     0.9553     0.3386     0.0202
A_1     C     0.294     0.7031     0.3684
A_2     C     0.1298     0.4783     0.7311
A_0     C     0.7373     0.8301     0.796
A_3     C     0.4555     0.7995     0.8434
A_3     C     0.3004     0.8758     0.0504
A_2     C     0.6399     0.648     0.9134
A_2     C     0.6298     0.7512     0.8535
A_1     C     0.271     0.0305     0.7641
A_2     C     0.6931     0.5604     0.2227
A_0     C     0.826     0.3932     0.0435
A_2     C     0.0964     0.797     0.5415
A_2     C     0.9935     0.8691     0.882
A_1     C     0.3416     0.1507     0.7421
A_2     C     0.3505     0.3381     0.9049
A_3     C     0.1336     0.7654     0.1751
A_0     C     0.9638     0.9644     0.9589
A_1     C     0.3165     0.5069     0.5055
A_2     C     0.3697     0.5189     0.9926
A_3     C     0.8991     0.8231     0.8251
A_1     C     0.255     0.1696     0.6048
A_2     C     0.8133     0.1197     0.4869
A_1     C     0.0107     0.5527     0.3878
A_2     C     0.6306     0.6112     0.2572
A_0     C     0.2782     0.1027     0.1295
A_2     C     0.3042     0.0369     0.5184
A_2     C     0.3374     0.1798     0.5161
A_1     C     0.3004     0.6924     0.6294
A_2     C     0.9531     0.584     0.5005
A_3     C     0.106     0.5914     0.6485
A_0     C     0.8497     0.0743     0.4796
A_2     C     0.946     0.7307     0.8927
A_3     C     0.3158     0.5569     0.2869
A_3     C     0.5053     0.489     0.6002
A_1     C     0.6127     0.0813     0.3496
A_2     C     0.2343     0.4076     0.8679
A_0     C     0.6275     0.4709     0.0584
A_2     C     0.0815     0.1627     0.1421
A_2     C     0.0963     0.1862     0.024
A_0     C     0.9505     0.8516     0.092
A_1     C     0.275     0.5297     0.4116
A_0     C     0.1663     0.0171     0.0329
A_2     C     0.7313     0.3259     0.258
A_3     C     0.0893     0.9064     0.1233
A_0     C     0.0928     0.2592     0.7089
A_2     C     0.5828     0.4382     0.2164
A_1     C     0.9212     0.5601     0.5404
A_0     C     0.7272     0.1195     0.5644
A_3     C     0.6071     0.6884     0.0332
A_3     C     0.3196     0.0201     0.9193
A_0     C     0.1677     0.9275     0.8751
A_0     C     0.7577     0.4247     0.2135
A_3     C     0.1853     0.4524     0.3503
A_1     C     0.6918     0.2382     0.4194
A_1     C     0.4544     0.5228     0.0149
A_0     C     0.0849     0.729     0.4324
A_1     C     0.9074     0.0634     0.2909
A_1     C     0.7722     0.6636     0.5645
A_1     C     0.8957     0.7947     0.953
A_1     C     0.1216     0.2847     0.2029
A_1     C     0.7273     0.6876     0.2314
A_0     C     0.7087     0.2388     0.7961
A_2     C     0.6238     0.3861     0.7847
A_3     C     0.7115     0.3609     0.9238
A_3     C     0.1973     0.1971     0.4506
A_3     C     0.8579     0.458     0.3239
A_3     C     0.5121     0.829     0.2891
A_1     C     0.1713     0.6716     0.9531
A_0     C     0.863     0.4914     0.439
A_1     C     0.045     0.6952     0.4447
A_2     C     0.3476     0.4233     0.1201
A_1     C     0.5361     0.8866     0.251
A_3     C     0.6707     0.1341     0.8936
A_0     C     0.5634     0.0957     0.4513
A_1     C     0.968     0.8381     0.9642
A_0     C     0.2887     0.6162     0.9842
A_3     C     0.2974     0.6545     0.2995
A_2     C     0.7462     0.6121     0.6826
A_0     C     0.2261     0.7348     0.8742
A_0     C     0.6968     0.8292     0.8031
A_3     C     0.7372     0.0776     0.1805
A_3     C     0.8587     0.1433     0.8564
A_1     C     0.0347     0.8853     0.7582
A_0     C     0.6971     0.2484     0.1327
A_1     C     0.3809     0.4341     0.22
A_1     C     0.552     0.8456     0.6381
A_2     C     0.957     0.6517     0.6103
A_1     C     0.8424     0.0384     0.9673
A_1     C     0.4207     0.9633     0.9705
A_1     C     0.9341     0.9895     0.7429
A_2     C     0.4348     0.8433     0.5632
A_3     C     0.4366     0.8009     0.4244
A_3     C     0.2472     0.8485     0.297
A_2     C     0.9351     0.6035     0.0956
A_0     C     0.5715     0.5313     0.4126
A_3     C     0.4954     0.2209     0.4407
A_1     C     0.0578     0.1003     0.2645
A_2     C     0.5698     0.9607     0.8629
A_2     C     0.2394     0.4142     0.5309
A_0     C     0.1787     0.567     0.7272
A_3     C     0.626     0.294     0.8967
A_2     C     0.368     0.8724     0.3266
A_2     C     0.1647     0.9591     0.2309
A_1     C     0.7209     0.0881     0.076
A_0     C     0.1758     0.2518     0.624
A_0     C     0.7341     0.8895     0.8913
A_0     C     0.4416     0.8221     0.0117
A_0     C     0.9183     0.9782     0.7751
A_2     C     0.5776     0.1977     0.3731
A_3     C     0.3807     0.8255     0.4631
A_0     C     0.7229     0.8298     0.3447
A_1     C     0.1542     0.5288     0.5768
A_0     C     0.0417     0.4601     0.2594
A_3     C     0.8133     0.9187     0.9573
A_2     C     0.0734     0.5821     0.2467
A_0     C     0.838     0.5728     0.5151
A_2     C     0.4635     0.0041     0.0728
A_0     C     0.4515     0.3918     0.2363
A_1     C     0.5773     0.5593     0.0757
A_2     C     0.6621     0.7059     0.0301
A_3     C     0.5744     0.5881     0.581
A_0     C     0.7024     0.0257     0.7304
A_3     C     0.084     0.9393     0.4723
A_2     C     0.9342     0.0876     0.1051
A_1     C     0.8809     0.0952     0.7551
A_3     C     0.8924     0.085     0.8732
A_3     C     0.9306     0.1367     0.5605
A_3     C     0.9401     0.6345     0.9358
A_0     C     0.1819     0.7576     0.4847
A_1     C     0.627     0.1111     0.1584
A_3     C     0.749     0.5038     0.2168
A_2     C     0.9616     0.0657     0.0627
A_2     C     0.8586     0.5434     0.8013
A_3     C     0.9108     0.8657     0.308
A_3     C     0.8857     0.3153     0.7389
A_3     C     0.9327     0.8987     0.7876
A_2     C     0.4397     0.9768     0.6921
A_3     C     0.6521     0.2485     0.3173
A_1     C     0.5401     0.4608     0.8355
A_3     C     0.0275     0.9076     0.8184
A_2     C     0.2161     0.0066     0.2056
A_1     C     0.4759     0.2585     0.2191
A_1     C     0.701     0.3299     0.8926
A_0     C     0.838     0.3988     0.4111
A_3     C     0.6138     0.9768     0.4935
A_0     C     0.6626     0.3911     0.8188
A_3     C     0.1135     0.2578     0.9419
A_0     C     0.3685     0.0931     0.647
A_0     C     0.5323     0.8122     0.5583
A_3     C     0.8033     0.3412     0.7822
A_2     C     0.5817     0.1391     0.8893
A_1     C     0.4941     0.0252     0.4816
A_2     C     0.1283     0.242     0.4031
A_1     C     0.6213     0.4214     0.4765
A_3     C     0.6133     0.5427     0.0816
A_1     C     0.452     0.5796     0.8293
A_3     C     0.8772     0.196     0.7083
A_1     C     0.7232     0.4061     0.6142
A_3     C     0.518     0.8074     0.1211
A_2     C     0.5866     0.0491     0.6181
A_1     C     0.2646     0.366     0.504
A_1     C     0.6592     0.8315     0.8443
A_0     C     0.5644     0.173     0.3754
A_1     C     0.8095     0.157     0.1891
A_2     C     0.5491     0.7419     0.4847
A_1     C     0.1523     0.5119     0.629
A_1     C     0.6614     0.1222     0.0738
A_2     C     0.0141     0.9678     0.9571
A_3     C     0.3738     0.8916     0.8127
A_0     C     0.7311     0.4855     0.522
A_1     C     0.9938     0.3276     0.572
A_2     C     0.1908     0.7206     0.7986
A_0     C     0.5131     0.3154     0.8746
A_1     C     0.3229     0.9956     0.732
A_2     C     0.9234     0.1394     0.3546
A_0     C     0.1559     0.5031     0.13
A_0     C     0.883     0.737     0.7563
A_2     C     0.7823     0.7402     0.2306
A_1     C     0.36     0.119     0.9472
A_0     C     0.2468     0.4549     0.8664
A_0     C     0.8216     0.0192     0.8591
A_0     C     0.0567     0.6116     0.24
A_2     C     0.9053     0.0193     0.6426
A_0     C     0.1795     0.0192     0.896
A_1     C     0.0795     0.598     0.2738
A_2     C     0.6051     0.2319     0.906
A_3     C     0.8244     0.2095     0.8583
A_2     C     0.4811     0.897     0.5818
A_3     C     0.3554     0.748     0.1635
A_1     C     0.6482     0.2718     0.1198
A_0     C     0.8213     0.7018     0.2619
A_0     C     0.6657     0.5573     0.0963
A_0     C     0.6666     0.5401     0.3742
A_3     C     0.3708     0.9615     0.5678
A_1     C     0.7278     0.5468     0.7058
A_3     C     0.7594     0.8214     0.3406
A_3     C     0.2566     0.8591     0.824
A_0     C     0.0478     0.6987     0.7615
A_1     C     0.8948     0.003     0.7749
A_2     C     0.5468     0.8899     0.2055
A_3     C     0.8466     0.6198     0.9789
A_3     C     0.9018     0.3047     0.7051
A_3     C     0.4411     0.7378     0.7062
A_0     C     0.5695     0.1991     0.4789
A_1     C     0.5615     0.3918     0.0357
A_0     C     0.7726     0.2309     0.5696
A_2     C     0.4282     0.9939     0.1854
A_3     C     0.5784     0.8361     0.1191
A_0     C     0.6746     0.6239     0.9157
A_1     C     0.9394     0.756     0.1171
A_0     C     0.8332     0.4744     0.3351
A_1     C     0.0525     0.6196     0.9091
A_1     C     0.1867     0.4178     0.4934
A_0     C     0.6695     0.0523     0.1156
A_2     C     0.8554     0.8167     0.6416
A_2     C     0.1771     0.9892     0.4874
A_0     C     0.2049     0.1389     0.5475
A_1     C     0.0172     0.3187     0.8904
A_3     C     0.213     0.1037     0.1462
A_0     C     0.9279     0.9906     0.0801
A_1     C     0.73     0.2457     0.9731
A_3     C     0.389     0.719     0.8817
A_1     C     0.2491     0.051     0.2261
A_3     C     0.2117     0.3472     0.3709
A_0     C     0.321     0.4523     0.2617
A_2     C     0.9757     0.1934     0.4478
A_1     C     0.3377     0.2405     0.3198
A_1     C     0.4423     0.8556     0.298
A_1     C     0.2903     0.4541     0.9825
A_3     C     0.1262     0.4614     0.8566
A_2     C     0.0534     0.4393     0.9774
A_2     C     0.5658     0.0114     0.6618
A_1     C     0.9852     0.7988     0.4903
A_0     C     0.4914     0.4369     0.2814
A_0     C     0.8062     0.0505     0.9081
A_2     C     0.4759     0.1385     0.9721
A_3     C     0.5979     0.5773     0.7437
A_3     C     0.3933     0.238     0.1338
A_0     C     0.1943     0.4625     0.4637
A_1     C     0.3122     0.4802     0.0842
A_2     C     0.0437     0.9251     0.8537
A_1     C     0.4579     0.1345     0.3844
A_1     C     0.4151     0.4202     0.255
A_1     C     0.9963     0.0817     0.4619
A_1     C     0.2974     0.1728     0.7733
A_0     C     0.0615     0.7641     0.1587
A_1     C     0.5221     0.1402     0.3612
A_2     C     0.7624     0.465     0.9098
A_3     C     0.9791     0.9846     0.8944
A_2     C     0.6811     0.5562     0.1911
A_3     C     0.8348     0.7311     0.2337
A_1     C     0.3513     0.5995     0.7337
A_0     C     0.5678     0.006     0.7611
A_0     C     0.0166     0.1397     0.3533
A_2     C     0.6929     0.8458     0.2598
A_3     C     0.6385     0.7137     0.8999
A_1     C     0.4623     0.1302     0.3062
A_2     C     0.3278     0.7052     0.7167
A_2     C     0.1789     0.1517     0.6974
A_3     C     0.5071     0.5269     0.3893
A_2     C     0.1587     0.1179     0.4016
A_3     C     0.2433     0.7602     0.7552
A_1     C     0.6766     0.6519     0.1062
A_0     C     0.4517     0.893     0.89
A_0     C     0.4184     0.7319     0.5001
A_0     C     0.3384     0.2601     0.3117
A_2     C     0.0351     0.2592     0.7443
A_2     C     0.6715     0.3786     0.0339
A_0     C     0.349     0.4625     0.8626
A_1     C     0.8093     0.1794     0.0265
A_0     C     0.0489     0.0635     0.0067
A_2     C     0.4755     0.072     0.3781
A_3     C     0.7865     0.3233     0.4154
A_0     C     0.8678     0.3794     0.3228
A_0     C     0.4085     0.1017     0.9427
A_3     C     0.9529     0.0403     0.5428
A_1     C     0.7333     0.9383     0.0931
A_0     C     0.5011     0.7666     0.8308
A_0     C     0.6985     0.6684     0.2751
A_2     C     0.3578     0.1245     0.0513
A_2     C     0.3533     0.1205     0.3021
A_3     C     0.3826     0.0577     0.1463
A_1     C     0.7488     0.1056     0.2884
A_1     C     0.8515     0.2074     0.2569
A_2     C     0.4358     0.0524     0.2185
A_3     C     0.2835     0.8334     0.5247
A_2     C     0.9594     0.2905     0.0573
A_1     C     0.6522     0.0981     0.93
A_0     C     0.6156     0.3162     0.8896
A_3     C     0.9542     0.2013     0.215
A_0     C     0.4716     0.3511     0.6164
A_1     C     0.5048     0.1334     0.5144
A_1     C     0.8208     0.4325     0.1218
A_1     C     0.3826     0.2348     0.5835
A_0     C     0.2972     0.334     0.1439
A_2     C     0.7652     0.6409     0.6097
A_1     C     0.9783     0.0635     0.8282
A_0     C     0.1193     0.8805     0.2604
A_2     C     0.8812     0.5248     0.5754
A_2     C     0.8478     0.5165     0.8683
A_2     C     0.0001     0.0538     0.2929
A_0     C     0.8167     0.1428     0.2602
A_3     C     0.8635     0.0571     0.5476
A_1     C     0.2405     0.4489     0.6798
A_1     C     0.6699     0.1134     0.9906
A_2     C     0.2884     0.5164     0.7196
A_2     C     0.0792     0.3588     0.5699
A_1     C     0.2047     0.7107     0.5498
A_2     C     0.4531     0.6781     0.2487
A_2     C     0.8671     0.887     0.7205
A_2     C     0.7483     0.8522     0.6282
A_0     C     0.8648     0.3248     0.0469
A_0     C     0.2624     0.0659     0.176
A_3     C     0.8029     0.6839     0.2174
A_1     C     0.9847     0.2571     0.4503
A_1     C     0.1534     0.6412     0.9817
A_0     C     0.1646     0.0858     0.5842
A_1     C     0.5369     0.6429     0.3356
A_1     C     0.8835     0.8185     0.9872
A_0     C     0.0793     0.077     0.0617
A_1     C     0.6971     0.6574     0.4131
A_3     C     0.1721     0.5354     0.9158
A_3     C     0.5759     0.7237     0.2879
A_2     C     0.556     0.7227     0.085
A_1     C     0.5522     0.2592     0.2481
A_0     C     0.2924     0.219     0.5508
A_1     C     0.2568     0.022     0.3715
A_1     C     0.7577     0.1694     0.9787
A_0     C     0.3252     0.7802     0.9212
A_0     C     0.352     0.1179     0.8267
A_0     C     0.5491     0.3911     0.1448
A_3     C     0.6468     0.7941     0.8257
A_1     C     0.7743     0.6504     0.3821
A_3     C     0.6999     0.4075     0.1959
A_3     C     0.6584     0.6195     0.6417
A_3     C     0.9118     0.1173     0.2746
A_0     C     0.4855     0.7862     0.8165
A_0     C     0.8261     0.8169     0.7801
A_0     C     0.686     0.5605     0.8069
A_1     C     0.2772     0.6124     0.6029
A_2     C     0.7598     0.537     0.8328
A_3     C     0.3158     0.7814     0.5973
A_2     C     0.1381     0.7707     0.7972
A_1     C     0.388     0.9834     0.0818
A_1     C     0.073     0.4966     0.935
A_2     C     0.5884     0.5763     0.8449
A_0     C     0.9982     0.2193     0.3041
A_3     C     0.3895     0.508     0.889
A_0     C     0.4449     0.8895     0.2303
A_1     C     0.0355     0.4112     0.8412
A_0     C     0.5494     0.2522     0.2595
A_1     C     0.3653     0.2065     0.6225
A_1     C     0.9276     0.1845     0.2172
A_2     C     0.525     0.4832     0.9345
A_1     C     0.7692     0.4132     0.6184
A_2     C     0.59     0.6771     0.769
A_1     C     0.3386     0.2565     0.3489
A_3     C     0.0921     0.2606     0.3447
A_1     C     0.9901     0.2296     0.9137
A_2     C     0.8852     0.0815     0.5821
A_1     C     0.723     0.907     0.8195
A_2     C     0.4912     0.7434     0.3915
A_1     C     0.1059     0.0634     0.5527
A_1     C     0.0147     0.6397     0.1763
A_0     C     0.509     0.5182     0.0559
A_3     C     0.8008     0.7919     0.5532
A_1     C     0.2478     0.8601     0.1445
A_1     C     0.429     0.6195     0.9515
A_3     C     0.8799     0.1994     0.9567
A_2     C     0.7071     0.2897     0.1959
A_2     C     0.6173     0.031     0.999
A_0     C     0.0457     0.1443     0.3434
A_2     C     0.602     0.0737     0.4621
A_2     C     0.0142     0.8694     0.304
A_3     C     0.3959     0.9893     0.4347
A_2     C     0.1664     0.7899     0.0215
A_3     C     0.7376     0.4716     0.0295
A_2     C     0.7415     0.999     0.9592
A_2     C     0.1717     0.9795     0.8929
A_1     C     0.6091     0.3759     0.081
A_2     C     0.2413     0.9784     0.752
A_3     C     0.246     0.4165     0.7341
A_0     C     0.147     0.6024     0.3968
A_2     C     0.4247     0.9111     0.5534
A_3     C     0.5037     0.5203     0.2613
A_1     C     0.0511     0.9752     0.0069
A_3     C     0.4894     0.0381     0.4878
A_0     C     0.6889     0.7612     0.4286
A_2     C     0.1584     0.372     0.8053
A_1     C     0.1591     0.8032     0.6883
A_1     C     0.4102     0.8431     0.8374
A_1     C     0.4353     0.7367     0.5494
A_1     C     0.0872     0.8296     0.035
A_0     C     0.6989     0.7186     0.2573
A_2     C     0.7233     0.6325     0.166
A_3     C     0.3633     0.1633     0.482
A_1     C     0.413     0.0377     0.1297
A_3     C     0.6362     0.4631     0.2009
A_3     C     0.6471     0.8966     0.8217
A_3     C     0.6385     0.5581     0.2867
A_2     C     0.4048     0.8159     0.9473
A_0     C     0.3155     0.5072     0.037
A_3     C     0.0753     0.4624     0.4967
A_2     C     0.8375     0.1517     0.6891
A_2     C     0.0146     0.0604     0.9059
A_2     C     0.1485     0.0331     0.2486
A_3     C     0.6642     0.5304     0.9229
A_0     C     0.7661     0.6409     0.1832
A_1     C     0.9693     0.0626     0.8732
A_2     C     0.8206     0.7684     0.455
A_2     C     0.0072     0.3886     0.8609
A_1     C     0.8893     0.0277     0.1833
A_3     C     0.4669     0.1723     0.2055
A_0     C     0.1198     0.1972     0.1808
A_2     C     0.2292     0.1468     0.2228
A_0     C     0.104     0.4665     0.2912
A_0     C     0.7121     0.2464     0.2343
A_3     C     0.5853     0.9003     0.6443
A_0     C     0.8469     0.0408     0.0238
A_2     C     0.5608     0.7981     0.2731
A_3     C     0.5478     0.4172     0.5332
A_1     C     0.1912     0.1913     0.3044
A_2     C     0.7024     0.8368     0.715
A_3     C     0.3887     0.8084     0.7089
A_1     C     0.6477     0.8475     0.73
A_3     C     0.8134     0.7395     0.7397
A_0     C     0.5266     0.7066     0.243
A_2     C     0.2225     0.8366     0.7224
A_3     C     0.0607     0.6157     0.7803
A_3     C     0.0107     0.3958     0.0161
A_0     C     0.2005     0.3679     0.6294
A_1     C     0.9424     0.1297     0.3631
A_3     C     0.6183     0.2986     0.866
A_1     C     0.3076     0.3368     0.0482
A_0     C     0.5351     0.4027     0.037
A_1     C     0.199     0.7584     0.509
A_3     C     0.6846     0.0959     0.9191
A_3     C     0.2503     0.4176     0.8987
A_0     C     0.5501     0.3721     0.9076
A_3     C     0.3504     0.7461     0.5436
A_1     C     0.6087     0.4973     0.8414
A_3     C     0.0603     0.0645     0.7069
A_2     C     0.4392     0.9595     0.0358
A_3     C     0.3506     0.6487     0.3056
A_3     C     0.569     0.7229     0.9583
A_1     C     0.5482     0.3207     0.599
A_2     C     0.3616     0.1002     0.1446
A_2     C     0.369     0.1776     0.6001
A_3     C     0.1049     0.5565     0.2029
A_3     C     0.4711     0.7829     0.464
A_0     C     0.9627     0.0761     0.044
A_3     C     0.8923     0.3886     0.0526
A_2     C     0.5648     0.0231     0.0431
A_2     C     0.3726     0.2296     0.7755
A_2     C     0.9002     0.3856     0.0328
A_0     C     0.2947     0.4886     0.7184
A_1     C     0.5514     0.953     0.3086
A_0     C     0.7976     0.7929     0.356
A_3     C     0.9453     0.5507     0.6958
A_3     C     0.785     0.7144     0.8978
A_0     C     0.9442     0.4174     0.5817
A_1     C     0.3686     0.7826     0.9218
A_3     C     0.6127     0.2244     0.1098
A_1     C     0.2082     0.5092     0.2844
A_0     C     0.9738     0.5281     0.4006
A_1     C     0.3099     0.1567     0.4735
A_1     C     0.9465     0.7578     0.2372
A_3     C     0.0178     0.2725     0.1314
A_1     C     0.9134     0.8164     0.5505
A_3     C     0.5101     0.2929     0.7967
A_1     C     0.8939     0.9253     0.8769
A_3     C     0.1663     0.7673     0.8644
A_1     C     0.0351     0.4234     0.163
A_3     C     0.2278     0.2879     0.03
A_0     C     0.3962     0.8897     0.7744
A_2     C     0.236     0.5668     0.1114
A_1     C     0.5705     0.3283     0.2012
A_1     C     0.5443     0.9788     0.3123
A_1     C     0.8362     0.8697     0.1617
A_2     C     0.763     0.9825     0.9733
A_0     C     0.943     0.0707     0.94
A_2     C     0.5339     0.4909     0.7007
A_1     C     0.945     0.6044     0.2093
A_0     C     0.9574     0.2447     0.7784
A_0     C     0.4273     0.6458     0.0387
A_1     C     0.7163     0.218     0.2139
A_3     C     0.0437     0.419     0.3214
A_2     C     0.9471     0.8018     0.8642
A_3     C     0.0235     0.1125     0.6092
A_2     C     0.4564     0.1117     0.9755
A_3     C     0.2538     0.582     0.2413
A_2     C     0.5302     0.7891     0.7534
A_1     C     0.9566     0.7305     0.8112
A_3     C     0.7537     0.0302     0.6687
A_1     C     0.6766     0.7837     0.1163
A_3     C     0.5698     0.2621     0.3263
A_1     C     0.9062     0.7804     0.8487
A_0     C     0.7474     0.6215     0.8926
A_2     C     0.0868     0.7634     0.174
A_0     C     0.3333     0.6667     0.7559
A_0     C     0.8764     0.3568     0.541
A_0     C     0.1439     0.5551     0.2764
A_1     C     0.4287     0.9709     0.7827
A_3     C     0.3325     0.2552     0.5942
A_2     C     0.9985     0.3116     0.4437
A_0     C     0.7929     0.9152     0.5817
A_2     C     0.2674     0.9379     0.8805
A_2     C     0.8138     0.6954     0.6784
A_1     C     0.6887     0.9925     0.7988
A_0     C     0.1408     0.8243     0.1621
A_0     C     0.1516     0.0919     0.1251
A_0     C     0.2429     0.2593     0.8866
A_1     C     0.1336     0.4616     0.2181
A_3     C     0.0741     0.1237     0.16
A_2     C     0.5562     0.0142     0.5771
A_3     C     0.0547     0.8449     0.4073
A_2     C     0.7021     0.3596     0.7306
A_0     C     0.7384     0.6678     0.1416
A_0     C     0.574     0.1934     0.0092
A_3     C     0.4773     0.9035     0.9803
A_0     C     0.6522     0.7976     0.4014
A_1     C     0.625     0.1814     0.7037
A_3     C     0.9088     0.392     0.0259
A_2     C     0.7595     0.2912     0.1711
A_3     C     0.466     0.449     0.9435
A_1     C     0.8791     0.4634     0.3829
A_0     C     0.0658     0.275     0.2741
A_0     C     0.1052     0.4749     0.4468
A_1     C     0.5445     0.6234     0.1082
A_3     C     0.8983     0.8507     0.2176
A_3     C     0.8234     0.6362     0.2105
A_3     C     0.5441     0.6746     0.8747
A_1     C     0.9865     0.2924     0.958
A_2     C     0.8669     0.299     0.9092
A_1     C     0.6087     0.8913     0.7251
A_1     C     0.3329     0.0374     0.8677
A_2     C     0.0985     0.2218     0.3804
A_0     C     0.4581     0.155     0.2717
A_0     C     0.3034     0.4961     0.0741
A_3     C     0.0397     0.5556     0.4338
A_0     C     0.3835     0.8812     0.4661
A_1     C     0.3643     0.5573     0.6948
A_1     C     0.5705     0.7989     0.2093
A_1     C     0.5384     0.2944     0.7234
A_2     C     0.1665     0.4299     0.5112
A_0     C     0.2175     0.6875     0.5895
A_3     C     0.574     0.668     0.7992
A_1     C     0.8125     0.1726     0.8554
A_2     C     0.3241     0.277     0.7512
A_2     C     0.9552     0.5984     0.0742
A_1     C     0.0284     0.1771     0.1901
A_1     C     0.0613     0.2819     0.065
A_0     C     0.1531     0.6735     0.6215
A_1     C     0.8495     0.2465     0.9881
A_1     C     0.978     0.7312     0.0031
A_0     C     0.8097     0.3084     0.0287
A_3     C     0.9993     0.7287     0.8038
A_3     C     0.3419     0.908     0.474
A_0     C     0.1128     0.5647     0.2339
A_0     C     0.5099     0.992     0.9275
A_3     C     0.9292     0.8194     0.2496
A_0     C     0.2905     0.1077     0.2417
A_2     C     0.8125     0.2998     0.6962
A_2     C     0.2516     0.4891     0.3239
A_1     C     0.9574     0.9906     0.4393
A_0     C     0.8577     0.225     0.7638
A_0     C     0.4984     0.8984     0.3479
A_1     C     0.1716     0.3023     0.4122
A_0     C     0.1896     0.0713     0.3834
A_3     C     0.7809     0.6676     0.4931
A_0     C     0.0547     0.6562     0.6267
A_0     C     0.5772     0.5189     0.0949
A_1     C     0.0281     0.9201     0.431
A_0     C     0.9314     0.8623     0.13
A_3     C     0.3824     0.5345     0.6882
A_1     C     0.1494     0.8266     0.8505
A_3     C     0.2557     0.5697     0.3308
A_1     C     0.625     0.6883     0.5627
A_3     C     0.1675     0.8523     0.9302
A_1     C     0.5664     0.5743     0.0198
A_0     C     0.5248     0.9104     0.8687
A_1     C     0.0548     0.1118     0.8179
A_0     C     0.0335     0.8023     0.0881
A_1     C     0.339     0.9643     0.7931
A_0     C     0.3279     0.4739     0.4773
A_0     C     0.5917     0.6482     0.9
A_2     C     0.3703     0.7568     0.8113
A_1     C     0.186     0.1942     0.8809
A_3     C     0.2694     0.8177     0.9011
A_0     C     0.2785     0.5038     0.4478
A_2     C     0.8234     0.9975     0.4106
A_1     C     0.5191     0.5205     0.331
A_3     C     0.5416     0.7224     0.639
A_2     C     0.1027     0.5428     0.1604
A_3     C     0.6692     0.4159     0.2703
A_0     C     0.1315     0.3069     0.9837
A_0     C     0.6571     0.2353     0.1617
A_3     C     0.2631     0.7414     0.1707
A_0     C     0.0693     0.7422     0.7412
A_0     C     0.9656     0.3746     0.694
A_2     C     0.9583     0.0317     0.1597
A_2     C     0.8525     0.8147     0.4934
A_1     C     0.264     0.4496     0.3432
A_2     C     0.4831     0.1202     0.5585
A_0     C     0.4434     0.3393     0.9517
A_2     C     0.5187     0.5487     0.8294
A_2     C     0.4963     0.9465     0.7637
A_0     C     0.8355     0.4151     0.7751
A_1     C     0.0336     0.6525     0.0296
A_2     C     0.7708     0.2724     0.2808
A_3     C     0.3522     0.0997     0.7513
A_3     C     0.3477     0.1576     0.183
A_0     C     0.7906     0.4786     0.6642
A_0     C     0.3165     0.8832     0.9265
A_3     C     0.3013     0.1756     0.7109
A_1     C     0.0219     0.4679     0.4366
A_1     C     0.6647     0.3477     0.8885
A_1     C     0.3591     0.653     0.4862
A_2     C     0.7139     0.8596     0.4442
A_2     C     0.5646     0.1723     0.2013
A_2     C     0.3923     0.224     0.8757
A_3     C     0.613     0.4383     0.9819
A_2     C     0.66     0.5862     0.5623
A_1     C     0.3685     0.252     0.9649
A_2     C     0.4326     0.8531     0.7875
A_3     C     0.6018     0.842     0.597
A_1     C     0.1854     0.8249     0.664
A_3     C     0.7792     0.504     0.5962
A_2     C     0.187     0.2061     0.4205
A_3     C     0.0357     0.8946     0.4587
A_2     C     0.2762     0.3304     0.6074
A_3     C     0.943     0.1321     0.8487
A_3     C     0.0765     0.6526     0.1678
A_1     C     0.8024     0.5019     0.2485
A_1     C     0.6403     0.7638     0.11
A_3     C     0.9387     0.2335     0.2769
A_2     C     0.8602     0.0301     0.5215
A_2     C     0.4577     0.2526     0.7217
A_0     C     0.096     0.1859     0.6405
A_2     C     0.6963     0.4735     0.9551
A_1     C     0.3574     0.0141     0.4745
A_3     C     0.254     0.7755     0.3845
A_3     C     0.0146     0.3352     0.8287
A_2     C     0.425     0.6212     0.5185
A_2     C     0.2863     0.7605     0.1432
A_0     C     0.4707     0.9884     0.454
A_2     C     0.7664     0.9456     0.5631
A_3     C     0.1189     0.3845     0.0666
A_3     C     0.0749     0.2531     0.4808
A_1     C     0.8795     0.4206     0.4495
A_2     C     0.4839     0.195     0.8742
A_1     C     0.1379     0.16     0.3919
A_1     C     0.995     0.2079     0.8913
A_1     C     0.2797     0.0623     0.7112
A_3     C     0.5489     0.8748     0.2061
A_3     C     0.2539     0.084     0.9103
A_3     C     0.908     0.1327     0.9065
A_3     C     0.4464     0.0508     0.6575
A_1     C     0.2939     0.4087     0.3198
A_0     C     0.6674     0.9062     0.1783
A_0     C     0.5404     0.3833     0.0672
A_1     C     0.0934     0.9512     0.8665
A_1     C     0.5665     0.6222     0.8036
A_1     C     0.8446     0.9598     0.7528
A_2     C     0.7216     0.6111     0.573
A_3     C     0.1589     0.7121     0.3726
A_1     C     0.9951     0.0751     0.7071
A_3     C     0.2629     0.9697     0.8995
A_0     C     0.2717     0.1936     0.6681
A_0     C     0.6704     0.9702     0.1064
A_2     C     0.8139     0.2738     0.8634
A_3     C     0.4437     0.5492     0.7863
A_1     C     0.8356     0.372     0.857
A_3     C     0.7817     0.7222     0.555
A_1     C     0.6957     0.366     0.9445
A_0     C     0.6656     0.0765     0.222
A_2     C     0.0399     0.3884     0.3498
A_2     C     0.7741     0.967     0.9572
A_0     C     0.7484     0.9984     0.1864
A_1     C     0.7782     0.0845     0.159
A_3     C     0.1462     0.2705     0.4693
A_1     C     0.7396     0.8426     0.8924
A_1     C     0.2079     0.941     0.0333
A_0     C     0.4863     0.8724     0.6328
A_1     C     0.4009     0.8975     0.1438
A_2     C     0.5011     0.7259     0.7291
A_1     C     0.5146     0.5158     0.1302
A_2     C     0.0052     0.0677     0.085
A_3     C     0.7223     0.2105     0.289
A_0     C     0.4558     0.3416     0.7776
A_2     C     0.6136     0.4424     0.943
A_2     C     0.2035     0.0943     0.963
A_3     C     0.2908     0.4617     0.7337
A_3     C     0.5528     0.325     0.1084
A_0     C     0.1374     0.2956     0.7126
A_0     C     0.1383     0.7691     0.9902
A_2     C     0.3345     0.5409     0.4803
A_0     C     0.2472     0.4698     0.5904
A_1     C     0.8687     0.9555     0.5085
A_1     C     0.8765     0.189     0.2837
A_2     C     0.346     0.0783     0.1201
A_1     C     0.5108     0.4777     0.042
A_1     C     0.0808     0.1176     0.234
A_0     C     0.3262     0.7011     0.5528
A_0     C     0.5289     0.3654     0.5975
A_2     C     0.1355     0.4509     0.452
A_0     C     0.8808     0.9112     0.7809
A_1     C     0.7886     0.9122     0.9087
A_0     C     0.4902     0.3647     0.723
A_2     C     0.2975     0.1963     0.6458
A_1     C     0.5459     0.5918     0.3548
A_2     C     0.656     0.5216     0.3799
A_3     C     0.5805     0.4757     0.6315
A_1     C     0.6846     0.9682     0.4478
A_3     C     0.9379     0.1339     0.2107
A_1     C     0.1232     0.1772     0.111
A_1     C     0.4735     0.2618     0.3274
A_0     C     0.9468     0.8648     0.1896
A_0     C     0.1968     0.7566     0.0197
A_2     C     0.7093     0.1916     0.933
A_2     C     0.4842     0.8469     0.4434
A_3     C     0.6719     0.9024     0.6159
A_1     C     0.6272     0.086     0.4329
A_1     C     0.8806     0.2139     0.0534
A_0     C     0.5757     0.3417     0.5297
A_3     C     0.5423     0.7471     0.1297
A_3     C     0.3988     0.3183     0.2781
A_3     C     0.8954     0.7145     0.072
A_3     C     0.4147     0.9473     0.8381
A_3     C     0.3522     0.0168     0.7446
A_1     C     0.7955     0.7893     0.5874
A_2     C     0.8471     0.678     0.1573
A_1     C     0.2251     0.4446     0.27
A_3     C     0.8269     0.1132     0.8615
A_2     C     0.3874     0.1077     0.2593
A_1     C     0.1103     0.8306     0.5961
A_0     C     0.5824     0.2976     0.1056
A_0     C     0.9276     0.0276     0.7275
A_3     C     0.4945     0.0121     0.1082
A_2     C     0.2051     0.0587     0.4722
A_0     C     0.9679     0.0983     0.3459
A_0     C     0.722     0.0645     0.0031
A_0     C     0.042     0.3664     0.6751
A_2     C     0.7424     0.8795     0.193
A_2     C     0.8408     0.2053     0.7626
A_2     C     0.5442     0.2121     0.8299
A_0     C     0.4154     0.1933     0.4088
A_0     C     0.6172     0.5691     0.7389
A_1     C     0.6503     0.6126     0.2944
A_2     C     0.7011     0.1861     0.641
A_0     C     0.3454     0.0901     0.9971
A_2     C     0.5388     0.6838     0.5857
A_1     C     0.1135     0.157     0.9609
A_3     C     0.2797     0.185     0.1354
A_0     C     0.8635     0.16     0.3427
A_3     C     0.6878     0.8161     0.806
A_0     C     0.2952     0.1159     0.2534
A_3     C     0.5164     0.452     0.107
A_3     C     0.2055     0.38     0.7148
A_1     C     0.943     0.8136     0.8342
A_2     C     0.0155     0.1013     0.553
A_1     C     0.8393     0.2784     0.5226
A_3     C     0.2232     0.0238     0.2006
A_0     C     0.1145     0.476     0.3322
A_0     C     0.6372     0.9639     0.0279
A_2     C     0.3538     0.8314     0.2986
A_3     C     0.0222     0.2767     0.7759
A_3     C     0.6624     0.3483     0.5519
A_3     C     0.9064     0.1564     0.1593
A_2     C     0.6903     0.6652     0.4182
A_3     C     0.1089     0.9881     0.1644
A_2     C     0.8478     0.4724     0.2627
A_3     C     0.0028     0.9379     0.0267
A_2     C     0.3352     0.3469     0.8534
A_3     C     0.629     0.225     0.1183
A_2     C     0.1412     0.0194     0.2906
A_2     C     0.7179     0.342     0.2378
A_2     C     0.366     0.6252     0.2406
A_1     C     0.1562     0.0065     0.5923
A_1     C     0.7224     0.3335     0.6615
A_1     C     0.0818     0.0267     0.5849
A_0     C     0.4902     0.351     0.2483
A_3     C     0.2491     0.9052     0.9895
A_0     C     0.2237     0.5051     0.3675
A_1     C     0.1516     0.5846     0.4339
A_1     C     0.2562     0.5112     0.4194
A_0     C     0.6071     0.7316     0.6061
A_3     C     0.8879     0.0676     0.2204
A_3     C     0.1959     0.9916     0.0711
A_0     C     0.9098     0.7466     0.2277
A_0     C     0.9165     0.8289     0.6075
A_3     C     0.4678     0.8648     0.9165
A_1     C     0.9792     0.0694     0.8356
A_3     C     0.3539     0.8472     0.6078
A_2     C     0.6818     0.165     0.9602
A_3     C     0.7768     0.9461     0.1638
A_3     C     0.7752     0.0431     0.5972
A_2     C     0.3171     0.4262     0.3086
A_0     C     0.6201     0.984     0.6036
A_0     C     0.8925     0.1657     0.2617
A_3     C     0.1988     0.9319     0.5079
A_2     C     0.0375     0.2294     0.1088
A_3     C     0.8283     0.3203     0.2485
A_2     C     0.59     0.3103     0.9606
A_0     C     0.1504     0.2838     0.9786
A_0     C     0.5392     0.4913     0.0131
A_3     C     0.7214     0.0842     0.4409
A_1     C     0.011     0.5816     0.2267
A_2     C     0.1846     0.0374     0.1629
A_2     C     0.2048     0.6325     0.4
A_3     C     0.039     0.9591     0.7334
A_1     C     0.2022     0.7574     0.6544
A_0     C     0.8527     0.1654     0.2706
A_0     C     0.7714     0.3529     0.5756
A_3     C     0.8013     0.682     0.1271
A_0     C     0.1891     0.5312     0.7041
A_2     C     0.4484     0.8911     0.2158
A_1     C     0.5923     0.6393     0.4005
A_3     C     0.6704     0.8714     0.8326
A_3     C     0.6454     0.4197     0.697
A_3     C     0.4403     0.1558     0.3974
A_2     C     0.0028     0.0991     0.5713
A_2     C     0.1014     0.9374     0.1343
A_2     C     0.4687     0.7381     0.5743
A_1     C     0.2415     0.9477     0.197
A_1     C     0.4679     0.0192     0.997
A_1     C     0.015     0.3936     0.7724
A_3     C     0.2629     0.4769     0.3638
A_3     C     0.1554     0.5598     0.1725
A_0     C     0.8469     0.3517     0.064
A_0     C     0.961     0.6342     0.707
A_3     C     0.088     0.6336     0.0556
A_1     C     0.7228     0.9928     0.2825
A_2     C     0.8702     0.7563     0.1112
A_3     C     0.3735     0.4741     0.8845
A_1     C     0.3425     0.0044     0.1775
A_1     C     0.2604     0.9929     0.6628
A_2     C     0.0732     0.2481     0.6328
A_3     C     0.2533     0.4952     0.1741
A_0     C     0.6188     0.4449     0.6194
A_0     C     0.8521     0.8502     0.0831
A_3     C     0.1459     0.6463     0.1852
A_0     C     0.0338     0.0276     0.9525
A_2     C     0.9751     0.9346     0.6489
A_3     C     0.1468     0.1589     0.6358
A_3     C     0.0459     0.6168     0.6769
A_3     C     0.2011     0.3101     0.0603
A_1     C     0.8736     0.3918     0.4167
A_1     C     0.8828     0.4218     0.037
A_2     C     0.7898     0.2194     0.9858
A_3     C     0.2678     0.8193     0.5334
A_0     C     0.8143     0.5461     0.4858
A_0     C     0.9426     0.4991     0.64
A_2     C     0.2635     0.1775     0.9231
A_1     C     0.3063     0.7119     0.0676
A_1     C     0.0187     0.0418     0.4498
A_2     C     0.1263     0.3505     0.0479
A_1     C     0.0135     0.7271     0.5685
A_2     C     0.7072     0.5269     0.8695
A_2     C     0.3172     0.5833     0.2177
A_0     C     0.9413     0.5323     0.0842
A_3     C     0.043     0.0654     0.9756
A_0     C     0.4743     0.6984     0.5216
A_1     C     0.0218     0.6576     0.3532
A_2     C     0.0741     0.5453     0.0874
A_0     C     0.9895     0.7465     0.8992
A_3     C     0.9116     0.3081     0.9494
A_1     C     0.6936     0.0195     0.0253
A_2     C     0.5324     0.9085     0.1393
A_2     C     0.3548     0.0527     0.5155
A_0     C     0.9955     0.3633     0.106
A_0     C     0.7967     0.1885     0.6684
A_3     C     0.5208     0.2238     0.8206
A_0     C     0.2563     0.9815     0.5453
A_3     C     0.7044     0.9168     0.1479
A_0     C     0.4736     0.3138     0.846
A_0     C     0.1168     0.0668     0.7753
A_2     C     0.0525     0.6797     0.397
A_3     C     0.7911     0.6693     0.0602
A_3     C     0.3715     0.6276     0.4266
A_3     C     0.5755     0.575     0.7147
A_3     C     0.196     0.6419     0.5181
A_2     C     0.0295     0.4774     0.3384
A_0     C     0.1515     0.0627     0.1822
A_1     C     0.6828     0.0468     0.0481
A_0     C     0.8391     0.0508     0.1154
A_1     C     0.5102     0.339     0.4921
A_0     C     0.8404     0.1843     0.4702
A_1     C     0.4188     0.2355     0.3429
A_2     C     0.8194     0.2821     0.6382
A_1     C     0.0499     0.9026     0.2483
A_0     C     0.8683     0.3896     0.7157
A_0     C     0.6111     0.3198     0.6791
A_2     C     0.2266     0.27     0.2138
A_0     C     0.2271     0.1143     0.2078
A_0     C     0.3353     0.0812     0.1678
A_2     C     0.4254     0.3774     0.634
A_0     C     0.1626     0.991     0.3757
A_0     C     0.8122     0.6312     0.6959
A_0     C     0.0021     0.7049     0.8509
A_3     C     0.6175     0.523     0.9809
A_0     C     0.9974     0.4392     0.9363
A_2     C     0.5788     0.7987     0.236
A_3     C     0.1723     0.6456     0.8132
A_3     C     0.6098     0.632     0.2279
A_2     C     0.8738     0.946     0.4856
A_2     C     0.4076     0.6254     0.3168
A_3     C     0.157     0.8258     0.4201
A_3     C     0.1206     0.5828     0.3372
A_0     C     0.666     0.9654     0.5459
A_3     C     0.2259     0.4428     0.7521
A_1     C     0.8224     0.2376     0.2932
A_3     C     0.9849     0.9128     0.6742
A_0     C     0.7255     0.257     0.5627
A_1     C     0.4475     0.6684     0.6931
A_3     C     0.5027     0.7977     0.1704
A_0     C     0.4573     0.489     0.7119
A_0     C     0.2613     0.566     0.9118
A_3     C     0.7834     0.4549     0.7394
A_1     C     0.7228     0.9814     0.3733
A_0     C     0.6855     0.2199     0.7938
A_3     C     0.5719     0.963     0.8796
A_1     C     0.1916     0.5208     0.7009
A_2     C     0.5368     0.7641     0.6863
A_2     C     0.1485     0.0351     0.8462
A_2     C     0.3561     0.1321     0.1086
A_2     C     0.8614     0.3677     0.4793
A_3     C     0.3617     0.8068     0.4357
A_1     C     0.1739     0.0205     0.2831
A_3     C     0.5807     0.3822     0.3869
A_3     C     0.65     0.7749     0.3793
A_2     C     0.4524     0.2638     0.1666
A_0     C     0.9765     0.3683     0.8472
A_1     C     0.9184     0.1332     0.3237
A_0     C     0.4556     0.8056     0.3908
A_0     C     0.6566     0.3901     0.9344
A_1     C     0.5463     0.7806     0.8081
A_2     C     0.3557     0.0757     0.1396
A_0     C     0.7373     0.5941     0.3325
A_0     C     0.0547     0.0158     0.7293
A_0     C     0.7523     0.195     0.867
A_1     C     0.3164     0.0226     0.0833
A_0     C     0.2389     0.2574     0.7735
A_3     C     0.3828     0.2715     0.8368
A_0     C     0.4434     0.0364     0.9521
A_0     C     0.2366     0.0624     0.0313
A_2     C     0.5083     0.7442     0.7607
A_2     C     0.5561     0.3503     0.4725
A_0     C     0.0213     0.8101     0.9276
A_3     C     0.606     0.5826     0.5557
A_2     C     0.7774     0.0579     0.1953
A_3     C     0.7427     0.1793     0.363
A_2     C     0.4261     0.7374     0.0859
A_3     C     0.8202     0.8499     0.2401
A_3     C     0.5499     0.8399     0.9567
A_1     C     0.6505     0.4064     0.7869
A_2     C     0.9879     0.4055     0.1589
A_0     C     0.5725     0.1798     0.9149
A_1     C     0.7206     0.7692     0.868
A_3     C     0.3295     0.858     0.5282
A_2     C     0.2666     0.9399     0.1623
A_3     C     0.6723     0.8327     0.8453
A_0     C     0.8581     0.7278     0.2679
A_0     C     0.8266     0.2072     0.0976
A_1     C     0.2418     0.7139     0.1201
A_1     C     0.323     0.3463     0.4533
A_0     C     0.2896     0.9572     0.2978
A_0     C     0.8688     0.015     0.534
A_1     C     0.8019     0.3878     0.856
A_1     C     0.2286     0.6115     0.6367
A_0     C     0.1588     0.9095     0.0931
A_0     C     0.6584     0.6723     0.1172
A_0     C     0.057     0.0129     0.1137
A_2     C     0.3154     0.9863     0.2911
A_0     C     0.2473     0.7119     0.9682
A_0     C     0.4628     0.744     0.8963
A_1     C     0.7665     0.6453     0.6523
A_2     C     0.4913     0.3363     0.0051
A_1     C     0.7359     0.3898     0.0734
A_3     C     0.672     0.9885     0.409
A_3     C     0.3308     0.8199     0.7784
A_3     C     0.4217     0.7564     0.4371
A_1     C     0.3941     0.7282     0.0125
A_1     C     0.1975     0.1987     0.3701
A_1     C     0.8846     0.5827     0.0891
A_1     C     0.2862     0.4505     0.7244
A_1     C     0.6415     0.4405     0.3459
A_2     C     0.7564     0.9653     0.5796
A_2     C     0.2236     0.5625     0.6518
A_2     C     0.4478     0.2247     0.3796
A_2     C     0.4032     0.0797     0.4828
A_2     C     0.1606     0.9405     0.5463
A_2     C     0.8572     0.23     0.7594
A_1     C     0.6389     0.727     0.4151
A_0     C     0.2658     0.7685     0.567
A_0     C     0.7077     0.3257     0.7878
A_2     C     0.2668     0.9872     0.2257
A_2     C     0.8511     0.5964     0.8308
A_3     C     0.6454     0.5558     0.5783
A_0     C     0.3468     0.2558     0.6282
A_3     C     0.0975     0.4082     0.105
A_0     C     0.4418     0.9737     0.4493
A_3     C     0.0182     0.4811     0.7871
A_2     C     0.1063     0.8007     0.4709
A_2     C     0.8141     0.9517     0.2324
A_0     C     0.2749     0.1989     0.8476
A_2     C     0.9733     0.8513     0.2962
A_1     C     0.2684     0.7768     0.4729
A_3     C     0.4954     0.8862     0.6576
A_3     C     0.4974     0.891     0.4847
A_0     C     0.8303     0.1487     0.4556
A_1     C     0.989     0.7419     0.8797
A_0     C     0.4603     0.9242     0.7069
A_1     C     0.3818     0.5038     0.0677
A_1     C     0.9005     0.8583     0.7257
A_2     C     0.7466     0.5573     0.1272
A_3     C     0.3196     0.0854     0.1464
A_3     C     0.4762     0.8761     0.2698
A_0     C     0.5529     0.0489     0.4983
A_1     C     0.6769     0.8361     0.1577
A_0     C     0.7209     0.6022     0.383
A_1     C     0.5011     0.8747     0.502
A_1     C     0.2885     0.883     0.4977
A_2     C     0.9962     0.8684     0.3633
A_3     C     0.2202     0.9093     0.6749
A_2     C     0.0523     0.8908     0.4834
A_1     C     0.5129     0.0283     0.8463
A_2     C     0.9154     0.0623     0.0301
A_3     C     0.8332     0.4658     0.4026
A_1     C     0.3956     0.5264     0.8928
A_0     C     0.084     0.6459     0.3172
A_2     C     0.2134     0.2115     0.1703
A_3     C     0.3424     0.501     0.7515
A_3     C     0.0445     0.6269     0.5065
A_2     C     0.9578     0.8869     0.9216
A_2     C     0.9004     0.7921     0.6644
A_1     C     0.3909     0.3381     0.3132
A_3     C     0.5585     0.5348     0.0723
A_3     C     0.4957     0.7455     0.3391
A_3     C     0.8483     0.3441     0.3548
A_2     C     0.8265     0.2033     0.5765
A_3     C     0.3498     0.6703     0.3746
A_1     C     0.4258     0.4481     0.2951
A_3     C     0.2635     0.7922     0.6904
A_1     C     0.2326     0.0225     0.2011
A_2     C     0.6515     0.1766     0.0276
A_3     C     0.7458     0.8618     0.3396
A_1     C     0.3732     0.0762     0.41
A_3     C     0.935     0.3756     0.2213
A_3     C     0.4885     0.4926     0.2704
A_3     C     0.4597     0.3347     0.8602
A_0     C     0.5771     0.3057     0.0777
A_1     C     0.0346     0.8883     0.4656
A_0     C     0.4629     0.2001     0.5045
A_0     C     0.7141     0.1762     0.4056
A_0     C     0.2237     0.9028     0.1544
A_2     C     0.3072     0.3059     0.8714
A_1     C     0.7641     0.4026     0.7643
A_1     C     0.3362     0.1513     0.2221
A_3     C     0.0776     0.0785     0.0316
A_0     C     0.3526     0.3164     0.0436
A_2     C     0.7913     0.9237     0.2256
A_1     C     0.7468     0.9893     0.3446
A_0     C     0.7878     0.0477     0.7338
A_3     C     0.7658     0.8211     0.874
A_1     C     0.8892     0.5938     0.3292
A_2     C     0.5788     0.2184     0.9029
A_1     C     0.0744     0.8827     0.7785
A_2     C     0.2289     0.5163     0.5187
A_0     C     0.657     0.5177     0.9214
A_0     C     0.5304     0.3385     0.2061
A_2     C     0.7291     0.699     0.7885
A_2     C     0.7855     0.2666     0.3843
A_0     C     0.039     0.7254     0.6726
A_0     C     0.7636     0.7471     0.7803
A_2     C     0.3531     0.2917     0.96
A_0     C     0.7942     0.5351     0.9304
A_1     C     0.7873     0.5635     0.6951
A_3     C     0.105     0.7047     0.8888
A_1     C     0.737     0.7908     0.6392
A_2     C     0.3919     0.5551     0.593
A_3     C     0.051     0.812     0.2749
A_2     C     0.6697     0.6774     0.8789
A_0     C     0.0917     0.7666     0.449
A_2     C     0.9756     0.1451     0.8686
A_0     C     0.931     0.8984     0.9842
A_1     C     0.0713     0.447     0.6463
A_1     C     0.782     0.1771     0.5892
A_3     C     0.9715     0.8191     0.1398
A_2     C     0.6839     0.3648     0.4993
A_3     C     0.2797     0.3009     0.9821
A_3     C     0.27     0.6551     0.4617
A_2     C     0.0209     0.0062     0.2611
A_1     C     0.0832     0.9041     0.4802
A_0     C     0.8856     0.175     0.1686
A_3     C     0.4211     0.0287     0.0007
A_3     C     0.3661     0.9114     0.3529
A_2     C     0.6183     0.3201     0.6505
A_3     C     0.8067     0.6321     0.5082
A_2     C     0.9109     0.6706     0.212
A_3     C     0.886     0.0806     0.042
A_0     C     0.8194     0.7356     0.2893
A_0     C     0.0573     0.6135     0.2663
A_0     C     0.274     0.5772     0.7346
A_2     C     0.2631     0.4504     0.1115
A_0     C     0.9978     0.1689     0.8438
A_3     C     0.9183     0.8259     0.44
A_0     C     0.5862     0.9025     0.7992
A_3     C     0.7613     0.9485     0.6451
A_1     C     0.586     0.0687     0.6198
A_0     C     0.4793     0.3519     0.2113
A_1     C     0.9138     0.4319     0.7601
A_1     C     0.0884     0.3023     0.0162
A_1     C     0.2841     0.7261     0.4335
A_2     C     0.6061     0.0174     0.0845
A_1     C     0.0361     0.2852     0.8684
A_1     C     0.3589     0.5377     0.438
A_0     C     0.9239     0.3789     0.7924
A_2     C     0.4901     0.9063     0.8069
A_3     C     0.8365     0.0318     0.2037
A_0     C     0.9332     0.2756     0.3698
A_0     C     0.8986     0.9362     0.5481
A_1     C     0.6159     0.5316     0.9047
A_3     C     0.1374     0.6987     0.7838
A_0     C     0.9162     0.3976     0.704
A_0     C     0.2082     0.7861     0.9766
A_1     C     0.7166     0.2528     0.9901
A_1     C     0.8702     0.3819     0.2334
A_1     C     0.9589     0.1264     0.3653
A_3     C     0.2785     0.9141     0.2321
A_0     C     0.7169     0.8254     0.2828
A_0     C     0.984     0.5843     0.5718
A_3     C     0.8535     0.2506     0.3362
A_1     C     0.7462     0.4524     0.9357
A_2     C     0.2577     0.951     0.4546
A_2     C     0.6472     0.5058     0.4344
A_0     C     0.0597     0.3711     0.7764
A_3     C     0.6499     0.0321     0.1599
A_3     C     0.5052     0.1475     0.2766
A_0     C     0.7017     0.6233     0.2704
A_2     C     0.7171     0.9998     0.917
A_0     C     0.9557     0.6316     0.7093
A_2     C     0.1795     0.7563     0.5398
A_1     C     0.6373     0.8269     0.1756
A_2     C     0.4184     0.4915     0.9711
A_1     C     0.9281     0.188     0.9133
A_1     C     0.9892     0.1535     0.9829
A_0     C     0.9777     0.6763     0.8578
A_0     C     0.4691     0.5274     0.1408
A_3     C     0.6515     0.1477     0.1035
A_3     C     0.5713     0.7149     0.8699
A_3     C     0.574     0.8055     0.6453
A_0     C     0.648     0.9562     0.0016
A_1     C     0.5022     0.3716     0.3147
A_0     C     0.9318     0.2184     0.0145
A_2     C     0.056     0.262     0.4022
A_2     C     0.1038     0.3128     0.0179
A_2     C     0.4336     0.4641     0.6535
A_2     C     0.6856     0.6042     0.1205
A_0     C     0.2749     0.0454     0.442
A_3     C     0.6608     0.448     0.7583
A_0     C     0.7908     0.706     0.1272
A_0     C     0.6698     0.5036     0.6274
A_2     C     0.5785     0.2141     0.0427
A_2     C     0.2524     0.7876     0.8966
A_2     C     0.2077     0.7388     0.2023
A_0     C     0.7956     0.5012     0.6972
A_0     C     0.7331     0.4963     0.9687
A_0     C     0.5631     0.9178     0.6977
A_0     C     0.6604     0.5258     0.9704
A_0     C     0.7924     0.0421     0.3847
A_1     C     0.3479     0.2526     0.5215
A_2     C     0.2842     0.2836     0.1657
A_1     C     0.4583     0.9958     0.7892
A_0     C     0.9967     0.359     0.0002
A_0     C     0.2847     0.1204     0.3852
A_2     C     0.1162     0.7274     0.8732
A_1     C     0.246     0.7474     0.4497
A_3     C     0.0848     0.2938     0.1646
A_2     C     0.076     0.5081     0.1153
A_0     C     0.0217     0.5291     0.4885
A_0     C     0.2974     0.8142     0.2058
A_1     C     0.7926     0.9186     0.3499
A_1     C     0.1497     0.1779     0.7908
A_2     C     0.2635     0.012     0.6283
A_0     C     0.7951     0.9672     0.4192
A_1     C     0.116     0.8237     0.5132
A_1     C     0.9118     0.5585     0.1218
A_3     C     0.1838     0.1534     0.2423
A_0     C     0.3359     0.0291     0.0784
A_1     C     0.5154     0.8559     0.8764
A_2     C     0.6854     0.4294     0.298
A_3     C     0.1977     0.1973     0.9529
A_1     C     0.471     0.6474     0.9982
A_1     C     0.5115     0.2239     0.0527
A_3     C     0.8626     0.0626     0.4533
A_2     C     0.8175     0.7993     0.3722
A_1     C     0.8253     0.9457     0.2431
A_3     C     0.9116     0.3322     0.5635
A_2     C     0.9611     0.5495     0.2819
A_3     C     0.3468     0.5731     0.8693
A_2     C     0.7349     0.1125     0.0582
A_2     C     0.7778     0.2279     0.401
A_3     C     0.3494     0.4708     0.4742
A_0     C     0.0457     0.2236     0.8272
A_2     C     0.1202     0.4241     0.9284
A_3     C     0.9965     0.9766     0.7867
A_0     C     0.2316     0.0426     0.748
A_3     C     0.951     0.6542     0.623
A_0     C     0.1372     0.2101     0.5543
A_1     C     0.5379     0.2695     0.0038
A_2     C     0.3959     0.8542     0.9681
A_3     C     0.1117     0.3852     0.3138
A_3     C     0.0583     0.7529     0.2139
A_0     C     0.7335     0.1767     0.0728
A_1     C     0.8797     0.4     0.6699
A_1     C     0.0058     0.5274     0.2611
A_3     C     0.5659     0.8675     0.9624
A_0     C     0.6304     0.0049     0.0543
A_2     C     0.4479     0.2097     0.1217
A_0     C     0.8658     0.1986     0.1308
A_0     C     0.1116     0.2423     0.6812
A_1     C     0.1238     0.6358     0.8425
A_0     C     0.8382     0.0061     0.5855
A_0     C     0.66     0.0922     0.0784
A_3     C     0.5632     0.6998     0.1902
A_3     C     0.0187     0.4957     0.7894
A_3     C     0.8611     0.429     0.677
A_2     C     0.0749     0.7153     0.5655
A_2     C     0.8462     0.5446     0.1372
A_1     C     0.9142     0.3622     0.7316
A_1     C     0.0416     0.8019     0.8014
A_1     C     0.1585     0.4096     0.8428
A_2     C     0.0096     0.4312     0.9797
A_0     C     0.6367     0.3433     0.6867
A_2     C     0.6053     0.007     0.4322
A_2     C     0.6913     0.7644     0.5651
A_3     C     0.0606     0.1818     0.0144
A_2     C     0.8129     0.05     0.7343
A_0     C     0.6019     0.2022     0.6735
A_3     C     0.6685     0.0269     0.8262
A_0     C     0.2618     0.2061     0.4319
A_2     C     0.1039     0.0468     0.2864
A_3     C     0.8329     0.498     0.9161
A_2     C     0.1707     0.4903     0.5286
A_2     C     0.4588     0.968     0.9476
A_3     C     0.975     0.6754     0.2131
A_1     C     0.9597     0.8938     0.0911
A_3     C     0.046     0.7398     0.2927
A_1     C     0.3632     0.1246     0.2624
A_1     C     0.8123     0.6679     0.8777
A_1     C     0.5305     0.1165     0.4679
A_3     C     0.6738     0.124     0.4918
A_3     C     0.0937     0.4774     0.9773
A_3     C     0.6834     0.9509     0.5562
A_0     C     0.7577     0.1348     0.8684
A_1     C     0.3374     0.0753     0.9297
A_1     C     0.1664     0.0776     0.8833
A_0     C     0.6672     0.0162     0.1231
A_2     C     0.2793     0.0791     0.8989
A_0     C     0.2456     0.9081     0.3878
A_2     C     0.2507     0.8683     0.1924
A_1     C     0.9373     0.5205     0.1935
A_3     C     0.0683     0.4297     0.7339
A_3     C     0.7515     0.4156     0.4849
A_1     C     0.9406     0.3245     0.6282
A_1     C     0.2959     0.2269     0.7002
A_3     C     0.3218     0.6138     0.3102
A_1     C     0.199     0.5554     0.6924
A_2     C     0.4833     0.7449     0.6789
A_2     C     0.0669     0.6137     0.6062
