MAT-81

loop_
_symmetry_equiv_pos_as_xyz
  x,y,z
_cell_length_a          38.9648
_cell_length_b          48.2663
_cell_length_c          36.1094
_cell_angle_alpha       90.0000
_cell_angle_beta        90.0000
_cell_angle_gamma       90.0000
loop_
_atom_site_label
_atom_site_type_symbol
_atom_site_fract_x
_atom_site_fract_y
_atom_site_fract_z
A_1     C     0.7178     0.278     0.9944
A_3     C     0.7208     0.4045     0.6796
A_0     C     0.8659     0.8115     0.8745
A_2     C     0.0523     0.3634     0.5359
A_0     C     0.4187     0.3248     0.0188
A_3     C     0.0883     0.9032     0.5986
A_2     C     0.4903     0.4134     0.2044
A_3     C     0.5801     0.0253     0.6924
A_3     C     0.0092     0.9028     0.4238
A_2     C     0.7198     0.6566     0.5281
A_3     C     0.8404     0.6194     0.9055
A_2     C     0.6974     0.0091     0.7397
A_3     C     0.6499     0.6195     0.9788
A_2     C     0.5878     0.8423     0.6744
A_3     C     0.5617     0.7193     0.9009
A_0     C     0.8161     0.1188     0.9936
A_3     C     0.0231     0.3449     0.7199
A_3     C     0.6798     0.064     0.2896
A_3     C     0.5264     0.3144     0.9518
A_1     C     0.8347     0.6139     0.6623
A_1     C     0.9251     0.2021     0.4328
A_1     C     0.8527     0.6642     0.1322
A_2     C     0.4835     0.8874     0.1038
A_2     C     0.4526     0.8764     0.6638
A_1     C     0.6457     0.3832     0.3372
A_3     C     0.2313     0.3155     0.6829
A_3     C     0.4321     0.5726     0.6697
A_2     C     0.5745     0.2734     0.4031
A_1     C     0.1606     0.1794     0.2974
A_3     C     0.1963     0.0142     0.3961
A_1     C     0.306     0.4808     0.7597
A_0     C     0.6306     0.5637     0.2252
A_2     C     0.8119     0.6047     0.3973
A_3     C     0.1725     0.3782     0.1891
A_3     C     0.6439     0.4921     0.8114
A_3     C     0.6038     0.5798     0.1944
A_3     C     0.308     0.7196     0.8491
A_2     C     0.5861     0.8215     0.6072
A_3     C     0.8967     0.6658     0.0644
A_3     C     0.1019     0.8729     0.7199
A_1     C     0.7084     0.1013     0.4581
A_2     C     0.7403     0.1128     0.4026
A_2     C     0.1281     0.9902     0.7529
A_0     C     0.8527     0.2407     0.3194
A_3     C     0.7783     0.5886     0.3197
A_2     C     0.1499     0.0842     0.8258
A_0     C     0.7419     0.3201     0.5898
A_2     C     0.4605     0.3516     0.8901
A_3     C     0.3818     0.5775     0.4015
A_3     C     0.6948     0.3865     0.1927
A_2     C     0.0724     0.3575     0.3226
A_2     C     0.3615     0.0213     0.3269
A_2     C     0.0167     0.6231     0.0338
A_3     C     0.4436     0.9765     0.728
A_0     C     0.2713     0.0808     0.6664
A_1     C     0.4466     0.0373     0.3838
A_1     C     0.7648     0.1135     0.6358
A_1     C     0.6636     0.5588     0.084
A_3     C     0.9996     0.8889     0.1412
A_2     C     0.3585     0.4081     0.3242
A_1     C     0.8046     0.3015     0.9135
A_3     C     0.0077     0.3569     0.7633
A_2     C     0.5959     0.9433     0.9789
A_0     C     0.2655     0.8599     0.6357
A_0     C     0.2669     0.32     0.3073
A_3     C     0.5782     0.1746     0.8229
A_0     C     0.2468     0.631     0.2557
A_0     C     0.8241     0.0626     0.0401
A_0     C     0.4916     0.5543     0.4798
A_0     C     0.319     0.4792     0.7611
A_3     C     0.6255     0.9428     0.7172
A_2     C     0.2775     0.3205     0.833
A_1     C     0.1585     0.8957     0.3529
A_3     C     0.4081     0.2904     0.5127
A_3     C     0.383     0.4348     0.9868
A_1     C     0.3239     0.7684     0.863
A_3     C     0.7331     0.2003     0.1292
A_0     C     0.0334     0.6239     0.2456
A_1     C     0.3467     0.8666     0.4585
A_1     C     0.8471     0.7594     0.8139
A_2     C     0.6523     0.738     0.6632
A_1     C     0.8775     0.9889     0.924
A_2     C     0.5231     0.2817     0.172
A_2     C     0.5997     0.5248     0.9724
A_0     C     0.3581     0.7553     0.0461
A_1     C     0.6045     0.9785     0.6776
A_2     C     0.4703     0.7365     0.3412
A_3     C     0.0434     0.115     0.2139
A_3     C     0.4509     0.4258     0.2289
A_1     C     0.0376     0.8988     0.8851
A_2     C     0.0103     0.9518     0.37
A_1     C     0.238     0.9804     0.7636
A_2     C     0.4731     0.7518     0.8595
A_2     C     0.0309     0.8926     0.4995
A_2     C     0.8132     0.8852     0.2645
A_3     C     0.3565     0.4588     0.9651
A_2     C     0.3761     0.9925     0.1243
A_1     C     0.7042     0.3644     0.1011
A_1     C     0.855     0.658     0.4943
A_1     C     0.766     0.9416     0.3045
A_1     C     0.4507     0.8763     0.8642
A_3     C     0.0211     0.7643     0.0842
A_3     C     0.8721     0.5917     0.6099
A_3     C     0.1335     0.9961     0.8248
A_0     C     0.0101     0.4981     0.9525
A_1     C     0.1024     0.9867     0.4333
A_3     C     0.6225     0.3099     0.8308
A_3     C     0.7694     0.8513     0.8195
A_0     C     0.6669     0.3409     0.4308
A_0     C     0.1867     0.8439     0.4857
A_1     C     0.8879     0.1669     0.7947
A_2     C     0.2448     0.3458     0.3788
A_0     C     0.2923     0.2346     0.2723
A_1     C     0.1355     0.8069     0.6338
A_1     C     0.2797     0.373     0.3508
A_1     C     0.8784     0.4151     0.6299
A_1     C     0.2436     0.8486     0.9784
A_2     C     0.6082     0.0503     0.8041
A_3     C     0.8569     0.7446     0.5095
A_3     C     0.0981     0.6941     0.7086
A_3     C     0.4911     0.4955     0.5753
A_2     C     0.2438     0.3351     0.1449
A_0     C     0.1638     0.0026     0.1893
A_3     C     0.6352     0.9496     0.2222
A_2     C     0.1616     0.6313     0.6285
A_0     C     0.4019     0.7079     0.4343
A_1     C     0.1404     0.0295     0.194
A_2     C     0.9365     0.3635     0.9051
A_1     C     0.5713     0.2463     0.2949
A_1     C     0.1968     0.6573     0.5355
A_3     C     0.1581     0.2879     0.4337
A_0     C     0.0628     0.8556     0.4412
A_3     C     0.646     0.8111     0.8635
A_0     C     0.0064     0.9258     0.9676
A_2     C     0.7384     0.5735     0.3606
A_1     C     0.0225     0.8838     0.5443
A_1     C     0.5691     0.216     0.0098
A_0     C     0.0167     0.5101     0.2588
A_2     C     0.1061     0.8924     0.765
A_2     C     0.1343     0.2073     0.1565
A_0     C     0.1771     0.3908     0.6306
A_0     C     0.495     0.5033     0.7536
A_0     C     0.7831     0.2676     0.1344
A_2     C     0.7623     0.0175     0.5418
A_2     C     0.3999     0.1704     0.639
A_2     C     0.6138     0.4117     0.8353
A_2     C     0.1701     0.9043     0.9164
A_1     C     0.0574     0.9925     0.7924
A_3     C     0.0196     0.2936     0.7555
A_2     C     0.4261     0.1023     0.4752
A_0     C     0.3279     0.011     0.4755
A_3     C     0.8823     0.4697     0.8433
A_1     C     0.7339     0.8936     0.7062
A_0     C     0.935     0.2793     0.8068
A_3     C     0.8806     0.6704     0.5519
A_2     C     0.7838     0.7865     0.0734
A_3     C     0.5033     0.6205     0.5599
A_2     C     0.971     0.2757     0.6282
A_0     C     0.0819     0.7077     0.7655
A_1     C     0.5559     0.729     0.1337
A_0     C     0.7308     0.6195     0.0531
A_2     C     0.0562     0.4455     0.9919
A_3     C     0.2144     0.4109     0.4087
A_3     C     0.9789     0.6551     0.6257
A_0     C     0.882     0.1663     0.7476
A_0     C     0.5767     0.2286     0.0169
A_3     C     0.704     0.2339     0.6293
A_0     C     0.5265     0.5529     0.5897
A_2     C     0.6878     0.7243     0.3383
A_0     C     0.1466     0.8068     0.091
A_2     C     0.9946     0.61     0.8575
A_2     C     0.085     0.7736     0.0192
A_0     C     0.3548     0.897     0.2518
A_1     C     0.6699     0.1311     0.2288
A_0     C     0.8368     0.7287     0.3664
A_0     C     0.3699     0.3804     0.0061
A_1     C     0.2356     0.7576     0.4607
A_3     C     0.7628     0.6199     0.5629
A_0     C     0.3175     0.4841     0.5629
A_1     C     0.7345     0.7982     0.7783
A_0     C     0.5765     0.0573     0.9141
A_0     C     0.1863     0.1483     0.1602
A_2     C     0.706     0.5027     0.3094
A_1     C     0.7442     0.9447     0.9665
A_1     C     0.3782     0.9687     0.0836
A_1     C     0.3196     0.2179     0.0613
A_3     C     0.8139     0.5376     0.6575
A_0     C     0.8625     0.3137     0.0109
A_2     C     0.1208     0.2875     0.6206
A_1     C     0.0729     0.8803     0.41
A_0     C     0.6259     0.4231     0.7382
A_2     C     0.5998     0.6768     0.8436
A_3     C     0.9064     0.5058     0.441
A_3     C     0.5007     0.1275     0.9616
A_0     C     0.8803     0.0222     0.3121
A_0     C     0.0868     0.2666     0.6141
A_2     C     0.7779     0.134     0.4841
A_1     C     0.0777     0.5039     0.6929
A_0     C     0.0842     0.5825     0.8176
A_1     C     0.0541     0.6232     0.0165
A_3     C     0.654     0.4941     0.3248
A_0     C     0.2195     0.9089     0.918
A_0     C     0.8942     0.4657     0.7368
A_2     C     0.367     0.9809     0.6004
A_1     C     0.87     0.6307     0.8289
A_3     C     0.4247     0.1522     0.245
A_2     C     0.427     0.7762     0.4026
A_1     C     0.2567     0.9458     0.3065
A_3     C     0.2218     0.5198     0.6434
A_0     C     0.102     0.6177     0.5106
A_3     C     0.6982     0.97     0.6812
A_2     C     0.522     0.7688     0.0563
A_2     C     0.0485     0.1738     0.5058
A_2     C     0.3207     0.9056     0.2251
A_1     C     0.303     0.6164     0.0938
A_3     C     0.6371     0.5335     0.2575
A_1     C     0.1056     0.4534     0.9048
A_2     C     0.3611     0.8831     0.8225
A_3     C     0.3272     0.3938     0.0347
A_3     C     0.3224     0.2595     0.0994
A_1     C     0.4835     0.567     0.048
A_2     C     0.0046     0.013     0.1684
A_1     C     0.9438     0.3512     0.7618
A_0     C     0.576     0.3711     0.1331
A_2     C     0.2835     0.4995     0.4346
A_1     C     0.4865     0.5267     0.8754
A_1     C     0.1772     0.1218     0.2067
A_3     C     0.3417     0.8884     0.3995
A_0     C     0.9195     0.5214     0.8884
A_3     C     0.3046     0.7937     0.9157
A_2     C     0.0094     0.2077     0.9698
A_0     C     0.9798     0.2833     0.4924
A_3     C     0.6989     0.3015     0.3153
A_0     C     0.6847     0.4396     0.3592
A_2     C     0.0276     0.6304     0.368
A_3     C     0.5061     0.8468     0.2256
A_0     C     0.0673     0.7622     0.0337
A_1     C     0.6199     0.0907     0.9385
A_2     C     0.5881     0.999     0.4262
A_1     C     0.3419     0.1086     0.9759
A_2     C     0.9548     0.6555     0.5696
A_1     C     0.2624     0.5564     0.8903
A_2     C     0.4096     0.6136     0.4757
A_0     C     0.1149     0.8126     0.6894
A_2     C     0.8746     0.0793     0.5625
A_0     C     0.9943     0.7278     0.8152
A_3     C     0.8735     0.7708     0.7616
A_0     C     0.045     0.4632     0.9777
A_1     C     0.0582     0.2938     0.5167
A_0     C     0.0586     0.316     0.0198
A_1     C     0.8811     0.6871     0.4248
A_1     C     0.3023     0.6318     0.586
A_3     C     0.6259     0.0475     0.8193
A_0     C     0.1668     0.1167     0.309
A_1     C     0.8523     0.6548     0.2987
A_3     C     0.5968     0.0483     0.2388
A_2     C     0.0068     0.0143     0.0492
A_2     C     0.4236     0.3762     0.7189
A_1     C     0.9949     0.9489     0.4838
A_2     C     0.1661     0.3137     0.0283
A_3     C     0.4445     0.1208     0.4431
A_0     C     0.7431     0.6122     0.4718
A_2     C     0.3846     0.6262     0.9435
A_2     C     0.71     0.948     0.1859
A_1     C     0.1276     0.747     0.4176
A_3     C     0.0812     0.4348     0.2945
A_2     C     0.619     0.949     0.2014
A_3     C     0.6872     0.5054     0.9479
A_0     C     0.8284     0.6683     0.3526
A_3     C     0.7602     0.6873     0.5576
A_3     C     0.4208     0.445     0.977
A_0     C     0.7209     0.516     0.4507
A_0     C     0.7904     0.4129     0.4485
A_2     C     0.1603     0.7809     0.7404
A_3     C     0.091     0.0099     0.1777
A_3     C     0.038     0.6847     0.271
A_2     C     0.6143     0.9857     0.0588
A_2     C     0.0121     0.9281     0.8174
A_0     C     0.7936     0.4771     0.3747
A_2     C     0.1466     0.7292     0.121
A_2     C     0.5429     0.7686     0.5457
A_1     C     0.377     0.3339     0.8735
A_1     C     0.9405     0.5014     0.5036
A_3     C     0.5674     0.8453     0.873
A_0     C     0.1653     0.5466     0.6489
A_0     C     0.5955     0.8906     0.7434
A_3     C     0.2692     0.2511     0.8645
A_1     C     0.5542     0.83     0.7931
A_3     C     0.2754     0.5513     0.9649
A_2     C     0.1102     0.9187     0.491
A_2     C     0.9716     0.9487     0.4167
A_3     C     0.96     0.1152     0.2075
A_0     C     0.6759     0.7155     0.6213
A_3     C     0.1055     0.6458     0.9006
A_3     C     0.5128     0.535     0.6275
A_0     C     0.0965     0.4713     0.032
A_0     C     0.3525     0.0007     0.8573
A_3     C     0.4528     0.3723     0.084
A_0     C     0.7745     0.0115     0.334
A_2     C     0.9883     0.7843     0.5526
A_3     C     0.0496     0.3451     0.895
A_2     C     0.5792     0.3294     0.2694
A_2     C     0.1981     0.7891     0.9512
A_1     C     0.7196     0.0989     0.4868
A_3     C     0.9365     0.8439     0.3011
A_2     C     0.2312     0.3167     0.8034
A_2     C     0.2845     0.505     0.0112
A_2     C     0.208     0.4003     0.2522
A_2     C     0.5245     0.8436     0.3632
A_2     C     0.7685     0.7346     0.2232
A_2     C     0.1234     0.2309     0.7344
A_2     C     0.8648     0.5975     0.8384
A_2     C     0.9604     0.5514     0.9668
A_2     C     0.9659     0.1389     0.0916
A_2     C     0.3921     0.1008     0.5697
A_2     C     0.3216     0.062     0.1733
A_2     C     0.8363     0.4717     0.7544
A_2     C     0.4223     0.5606     0.0369
A_2     C     0.4116     0.2229     0.064
A_2     C     0.3606     0.0961     0.8055
A_2     C     0.0107     0.2343     0.4189
A_2     C     0.1772     0.2114     0.071
A_2     C     0.2328     0.1186     0.9371
A_2     C     0.1611     0.5175     0.7483
A_2     C     0.2828     0.4663     0.1442
A_2     C     0.8197     0.9967     0.6652
A_2     C     0.1177     0.0061     0.2316
A_2     C     0.2479     0.1633     0.8498
A_2     C     0.3113     0.4456     0.3754
A_2     C     0.2505     0.4453     0.755
A_2     C     0.3171     0.0428     0.9317
A_2     C     0.9989     0.71     0.2246
A_2     C     0.6055     0.1516     0.9952
A_2     C     0.2784     0.4385     0.5926
A_2     C     0.0732     0.0849     0.4455
A_2     C     0.9486     0.2438     0.7064
A_2     C     0.3852     0.2129     0.5313
A_2     C     0.2208     0.7513     0.2498
A_2     C     0.0846     0.3521     0.2978
A_2     C     0.2072     0.2397     0.8246
A_2     C     0.9353     0.7363     0.4802
A_2     C     0.3447     0.4537     0.627
A_2     C     0.0743     0.0073     0.8075
A_2     C     0.678     0.9308     0.4543
A_2     C     0.8019     0.0738     0.4879
A_2     C     0.7314     0.4157     0.2821
A_2     C     0.8985     0.3267     0.4759
A_2     C     0.6156     0.2908     0.4256
A_2     C     0.752     0.6681     0.2587
A_2     C     0.863     0.7333     0.5971
A_2     C     0.3262     0.6748     0.2354
A_2     C     0.0285     0.9539     0.6813
A_2     C     0.1664     0.2818     0.5944
A_2     C     0.6995     0.786     0.7594
A_2     C     0.6588     0.9853     0.2329
A_2     C     0.5118     0.8237     0.0221
A_2     C     0.3815     0.6785     0.4275
A_2     C     0.1484     0.0616     0.4606
A_2     C     0.2983     0.6655     0.0372
A_2     C     0.8813     0.7261     0.2704
A_2     C     0.8282     0.0028     0.1298
A_2     C     0.068     0.4006     0.7188
A_2     C     0.9297     0.4884     0.2146
A_2     C     0.3564     0.0699     0.1983
A_2     C     0.5668     0.4396     0.704
A_2     C     0.6496     0.426     0.3164
A_2     C     0.7908     0.3504     0.5658
A_2     C     0.4241     0.6725     0.0189
A_2     C     0.9834     0.1449     0.9776
A_2     C     0.3199     0.9265     0.1131
A_2     C     0.7204     0.182     0.9541
A_2     C     0.1283     0.3213     0.8778
A_2     C     0.5472     0.0735     0.3105
A_2     C     0.7196     0.7351     0.1284
A_2     C     0.1405     0.1614     0.2674
A_2     C     0.4904     0.8252     0.0322
A_2     C     0.6671     0.0213     0.5068
A_2     C     0.0624     0.7321     0.5783
A_2     C     0.4363     0.4101     0.9818
A_2     C     0.6153     0.6344     0.3624
A_2     C     0.4337     0.1221     0.0349
A_2     C     0.0357     0.4604     0.3569
A_2     C     0.6255     0.924     0.2937
A_2     C     0.1486     0.8064     0.0505
A_2     C     0.0652     0.6423     0.8678
A_2     C     0.1287     0.2277     0.8051
A_2     C     0.3519     0.4733     0.8832
A_2     C     0.9693     0.8963     0.6054
A_2     C     0.1675     0.7014     0.2124
A_2     C     0.3982     0.3342     0.0424
A_2     C     0.9206     0.5665     0.7793
A_2     C     0.2316     0.8004     0.0379
A_2     C     0.5603     0.3159     0.0387
A_2     C     0.99     0.9901     0.5805
A_2     C     0.6662     0.5135     0.5894
A_2     C     0.573     0.3424     0.4028
A_2     C     0.3096     0.8324     0.2553
A_2     C     0.9506     0.9213     0.8271
A_2     C     0.1676     0.5334     0.4034
A_2     C     0.1618     0.8843     0.9422
A_2     C     0.1511     0.8817     0.1141
A_2     C     0.616     0.4429     0.7218
A_2     C     0.1282     0.5483     0.2454
A_2     C     0.7718     0.702     0.3687
A_2     C     0.6354     0.9353     0.6721
A_2     C     0.3308     0.976     0.7213
A_2     C     0.643     0.8287     0.2507
A_2     C     0.6609     0.7257     0.3961
A_2     C     0.2583     0.0733     0.883
A_2     C     0.064     0.1137     0.55
A_2     C     0.6261     0.0788     0.3918
A_2     C     0.8166     0.0006     0.9728
A_2     C     0.9918     0.1596     0.4065
A_2     C     0.0753     0.9526     0.4271
A_2     C     0.3204     0.4976     0.2396
A_2     C     0.843     0.5548     0.0057
A_2     C     0.7034     0.6775     0.3941
A_2     C     0.7863     0.9599     0.4996
A_2     C     0.4164     0.9525     0.2228
A_2     C     0.7381     0.9593     0.3773
A_2     C     0.6017     0.3205     0.5663
A_2     C     0.1556     0.4218     0.7237
A_2     C     0.9686     0.6568     0.2003
A_2     C     0.5672     0.1793     0.8917
A_2     C     0.2441     0.6661     0.9664
A_2     C     0.8993     0.5205     0.2883
A_2     C     0.0686     0.7904     0.873
A_2     C     0.2607     0.526     0.2592
A_2     C     0.5998     0.3501     0.7511
A_2     C     0.3281     0.1887     0.3602
A_2     C     0.3816     0.8076     0.5191
A_2     C     0.529     0.524     0.365
A_2     C     0.7897     0.0778     0.7072
A_2     C     0.5691     0.8266     0.5761
A_2     C     0.4968     0.0096     0.2751
A_2     C     0.0192     0.6252     0.4972
A_2     C     0.1249     0.76     0.5137
A_2     C     0.9619     0.0933     0.2333
A_2     C     0.3154     0.3061     0.1666
A_2     C     0.3445     0.6579     0.9188
A_2     C     0.2465     0.9589     0.1522
A_2     C     0.2298     0.7306     0.4066
A_2     C     0.4263     0.9238     0.8832
A_2     C     0.2228     0.3941     0.9508
A_2     C     0.7054     0.0501     0.3153
A_2     C     0.5434     0.6884     0.5298
A_2     C     0.3876     0.6752     0.2016
A_2     C     0.8555     0.0902     0.8002
A_2     C     0.8413     0.8056     0.232
A_2     C     0.1156     0.4293     0.4114
A_2     C     0.7123     0.4831     0.5123
A_2     C     0.4263     0.9729     0.5398
A_2     C     0.2768     0.6294     0.8461
A_2     C     0.0772     0.1788     0.1489
A_2     C     0.2287     0.3359     0.5206
A_2     C     0.4822     0.0528     0.4699
A_2     C     0.8157     0.627     0.9905
A_2     C     0.1664     0.3136     0.8478
A_2     C     0.7972     0.7807     0.7375
A_2     C     0.0873     0.0259     0.3836
A_2     C     0.6516     0.6581     0.5334
A_2     C     0.4592     0.1849     0.5824
A_2     C     0.8491     0.2116     0.9691
A_2     C     0.3625     0.9391     0.5002
A_2     C     0.4122     0.0022     0.7299
A_2     C     0.4878     0.2786     0.8643
A_2     C     0.489     0.2066     0.0733
A_2     C     0.256     0.084     0.9665
A_2     C     0.7567     0.9893     0.4247
A_2     C     0.8567     0.8716     0.5963
A_2     C     0.007     0.0727     0.136
A_2     C     0.3553     0.2526     0.6604
A_2     C     0.0864     0.9174     0.0092
A_2     C     0.7355     0.5122     0.6819
A_2     C     0.0234     0.7467     0.4319
A_2     C     0.7721     0.0374     0.6156
A_2     C     0.2321     0.553     0.2068
A_2     C     0.6896     0.9403     0.312
A_2     C     0.1203     0.4702     0.3503
A_2     C     0.9459     0.6167     0.9547
A_2     C     0.7558     0.7311     0.0797
A_2     C     0.9846     0.1939     0.6447
A_2     C     0.7882     0.673     0.5166
A_2     C     0.8282     0.1442     0.9401
A_2     C     0.519     0.6153     0.6676
A_2     C     0.2499     0.5832     0.9041
A_2     C     0.1819     0.7249     0.3939
A_2     C     0.4651     0.8854     0.0472
A_2     C     0.4252     0.2209     0.755
A_2     C     0.0522     0.5953     0.0006
A_2     C     0.3213     0.1244     0.2376
A_2     C     0.1605     0.5268     0.3969
A_2     C     0.4638     0.5017     0.6391
A_2     C     0.978     0.8131     0.8567
A_2     C     0.1828     0.8526     0.6475
A_2     C     0.3124     0.9955     0.1192
A_2     C     0.1268     0.2604     0.3898
A_2     C     0.0279     0.6819     0.7105
A_2     C     0.4526     0.8752     0.6846
A_2     C     0.0698     0.3219     0.6858
A_2     C     0.5547     0.7584     0.7536
A_2     C     0.3329     0.1427     0.5536
A_2     C     0.2167     0.4336     0.5289
A_2     C     0.9414     0.4663     0.7132
A_2     C     0.1286     0.1895     0.1668
A_2     C     0.9701     0.1043     0.0725
A_2     C     0.2695     0.8328     0.906
A_2     C     0.7573     0.3883     0.5745
A_2     C     0.9679     0.7857     0.0997
A_2     C     0.3288     0.5156     0.0387
A_2     C     0.2624     0.3541     0.252
A_2     C     0.8799     0.791     0.7555
A_2     C     0.4126     0.4238     0.3608
A_2     C     0.7966     0.6375     0.4626
A_2     C     0.6364     0.5678     0.5476
A_2     C     0.0475     0.5208     0.8524
A_2     C     0.5821     0.4677     0.0372
A_2     C     0.4051     0.4575     0.9194
A_2     C     0.5674     0.684     0.9152
A_2     C     0.4697     0.5462     0.8915
A_2     C     0.1516     0.2619     0.582
A_2     C     0.0388     0.5857     0.8116
A_2     C     0.9346     0.0967     0.2802
A_2     C     0.918     0.6903     0.2936
A_2     C     0.8232     0.8817     0.4214
A_2     C     0.1225     0.4692     0.491
A_2     C     0.1573     0.3419     0.8091
A_2     C     0.6069     0.4725     0.764
A_2     C     0.7393     0.2202     0.4172
A_2     C     0.8473     0.8907     0.6951
A_2     C     0.3977     0.7776     0.6555
A_2     C     0.2172     0.7061     0.9088
A_2     C     0.3678     0.9682     0.0049
A_2     C     0.2061     0.1993     0.3916
A_2     C     0.5521     0.5899     0.6388
A_2     C     0.6324     0.6431     0.1032
A_2     C     0.397     0.8796     0.0817
A_2     C     0.7599     0.0016     0.7216
A_2     C     0.4093     0.4463     0.963
A_2     C     0.2625     0.5749     0.7438
A_2     C     0.9212     0.1952     0.0532
A_2     C     0.9641     0.6287     0.0956
A_2     C     0.5006     0.3207     0.8773
A_2     C     0.8584     0.0809     0.8631
A_2     C     0.2436     0.3209     0.6757
A_2     C     0.8634     0.4114     0.4126
A_2     C     0.4039     0.0979     0.3253
A_2     C     0.6209     0.1316     0.5807
A_2     C     0.228     0.7865     0.5756
A_2     C     0.5404     0.1046     0.1854
A_2     C     0.9205     0.0494     0.388
A_2     C     0.6414     0.0081     0.2925
A_2     C     0.1634     0.6603     0.2373
A_2     C     0.6891     0.4521     0.4303
A_2     C     0.5135     0.406     0.607
A_2     C     0.0498     0.838     0.095
A_2     C     0.2855     0.7819     0.0774
A_2     C     0.6217     0.0672     0.8458
A_2     C     0.1969     0.6374     0.8656
A_2     C     0.0747     0.338     0.3094
A_2     C     0.5759     0.2448     0.4836
A_2     C     0.102     0.3959     0.2649
A_2     C     0.4661     0.3812     0.5319
A_2     C     0.454     0.2558     0.8949
A_2     C     0.4859     0.6157     0.3944
A_2     C     0.5665     0.7243     0.8802
A_2     C     0.3044     0.8376     0.8214
A_2     C     0.9336     0.0134     0.3204
A_2     C     0.3575     0.3091     0.5756
A_2     C     0.8524     0.4908     0.6941
A_2     C     0.6766     0.038     0.5996
A_2     C     0.0792     0.9887     0.6002
A_2     C     0.5244     0.6678     0.5799
A_2     C     0.7979     0.6204     0.5616
A_2     C     0.0231     0.1     0.6705
A_2     C     0.1035     0.7579     0.8287
A_2     C     0.6408     0.9187     0.8672
A_2     C     0.2093     0.3944     0.7026
A_2     C     0.3671     0.5574     0.3246
A_2     C     0.489     0.8522     0.9931
A_2     C     0.3329     0.6838     0.0003
A_2     C     0.6785     0.7816     0.775
A_2     C     0.3262     0.1085     0.9751
A_2     C     0.753     0.3147     0.7644
A_2     C     0.1803     0.2179     0.7541
A_2     C     0.7875     0.429     0.7713
A_2     C     0.5325     0.3228     0.6378
A_2     C     0.0225     0.3693     0.6347
A_2     C     0.2424     0.7842     0.8296
A_2     C     0.3605     0.4476     0.8944
A_2     C     0.154     0.9559     0.3392
A_2     C     0.2256     0.5425     0.061
A_2     C     0.7827     0.272     0.7507
A_2     C     0.049     0.7359     0.8169
A_2     C     0.6707     0.0666     0.9023
A_2     C     0.9775     0.8792     0.1588
A_2     C     0.7598     0.0628     0.3982
A_2     C     0.709     0.2258     0.1038
A_2     C     0.3094     0.8094     0.3034
A_2     C     0.1104     0.3469     0.9919
A_2     C     0.4101     0.4331     0.1437
A_2     C     0.4523     0.0911     0.7286
A_2     C     0.4908     0.3154     0.4839
A_2     C     0.2887     0.4482     0.9904
A_2     C     0.3536     0.921     0.6817
A_2     C     0.2648     0.7532     0.4027
A_2     C     0.7478     0.2608     0.9374
A_2     C     0.4145     0.005     0.2596
A_2     C     0.6065     0.2197     0.5087
A_2     C     0.7121     0.2235     0.1992
A_2     C     0.2567     0.921     0.192
A_2     C     0.8237     0.3844     0.2422
A_2     C     0.283     0.5997     0.2997
A_2     C     0.5503     0.048     0.8159
A_2     C     0.2282     0.6681     0.1892
A_2     C     0.7349     0.0226     0.0363
A_2     C     0.1138     0.1771     0.5823
A_2     C     0.8179     0.6494     0.4288
A_2     C     0.0143     0.0176     0.8732
A_2     C     0.9521     0.8466     0.0354
A_2     C     0.3796     0.6609     0.3285
A_2     C     0.5728     0.2565     0.7205
A_2     C     0.7811     0.8693     0.6905
A_2     C     0.1109     0.3812     0.4158
A_2     C     0.7652     0.9724     0.413
A_2     C     0.0358     0.946     0.9479
A_2     C     0.5555     0.6352     0.4366
A_2     C     0.8376     0.2643     0.0841
A_2     C     0.586     0.7594     0.6288
A_2     C     0.4181     0.7577     0.5631
A_2     C     0.2355     0.5453     0.5694
A_2     C     0.7428     0.2659     0.3953
A_2     C     0.5548     0.1731     0.2417
A_2     C     0.696     0.5307     0.1327
A_2     C     0.7507     0.7386     0.9733
A_2     C     0.0879     0.7971     0.9673
A_2     C     0.7316     0.5261     0.0882
A_2     C     0.8625     0.7538     0.8064
A_2     C     0.937     0.9486     0.3927
A_2     C     0.283     0.7943     0.1014
A_2     C     0.7522     0.355     0.1126
A_2     C     0.1725     0.8249     0.2972
A_2     C     0.2334     0.6929     0.7546
A_2     C     0.9925     0.4851     0.233
A_2     C     0.5356     0.772     0.9953
A_2     C     0.5179     0.2102     0.9678
A_2     C     0.1468     0.1225     0.1323
A_2     C     0.2935     0.0567     0.5515
A_2     C     0.8877     0.2989     0.5453
A_2     C     0.1344     0.5901     0.1136
A_2     C     0.9834     0.9835     0.4091
A_2     C     0.3515     0.7318     0.6754
A_2     C     0.9949     0.1785     0.9237
A_2     C     0.6302     0.1168     0.6381
A_2     C     0.2969     0.5737     0.3999
A_2     C     0.4093     0.1894     0.5707
A_2     C     0.9663     0.9532     0.5571
A_2     C     0.302     0.9768     0.5043
A_2     C     0.0647     0.5831     0.8287
A_2     C     0.6232     0.6937     0.0193
A_2     C     0.9013     0.8003     0.0281
A_2     C     0.7181     0.2521     0.6116
A_2     C     0.3595     0.5974     0.1278
A_2     C     0.4809     0.4425     0.1209
A_2     C     0.5835     0.3827     0.344
A_2     C     0.0884     0.37     0.3917
A_2     C     0.6186     0.2058     0.2123
A_2     C     0.4799     0.9553     0.5531
A_2     C     0.5884     0.8856     0.3912
A_2     C     0.7922     0.3638     0.9085
A_2     C     0.8551     0.7538     0.9901
A_2     C     0.3716     0.0574     0.3821
A_2     C     0.9783     0.3793     0.6212
A_2     C     0.6945     0.6635     0.2592
A_2     C     0.9139     0.1487     0.8528
A_2     C     0.7604     0.9485     0.205
A_2     C     0.759     0.1477     0.7178
A_2     C     0.7941     0.9193     0.9207
A_2     C     0.8681     0.0514     0.566
A_2     C     0.6444     0.6294     0.2294
A_2     C     0.9172     0.2352     0.0287
A_2     C     0.8497     0.8057     0.8564
A_2     C     0.7747     0.7628     0.0336
A_2     C     0.7105     0.3805     0.1675
A_2     C     0.2463     0.2485     0.5331
A_2     C     0.4373     0.2651     0.7159
A_2     C     0.3069     0.7437     0.6187
A_2     C     0.461     0.1114     0.4829
A_2     C     0.5866     0.8351     0.0105
A_2     C     0.6816     0.8985     0.5085
A_2     C     0.208     0.0084     0.2961
A_2     C     0.7999     0.598     0.2373
A_2     C     0.5666     0.6462     0.9386
A_2     C     0.1801     0.4851     0.7267
A_2     C     0.9875     0.4058     0.6477
A_2     C     0.4261     0.478     0.0263
A_2     C     0.7665     0.6168     0.9784
A_2     C     0.0254     0.578     0.8917
A_2     C     0.508     0.7459     0.0539
A_2     C     0.6286     0.2524     0.1292
A_2     C     0.1313     0.0756     0.5896
A_2     C     0.273     0.3264     0.2734
A_2     C     0.8027     0.9764     0.1667
A_2     C     0.8343     0.0973     0.6865
A_2     C     0.0657     0.1629     0.2845
A_2     C     0.2436     0.8756     0.8253
A_2     C     0.0605     0.8968     0.0101
A_2     C     0.3393     0.4043     0.547
A_2     C     0.0659     0.0072     0.5931
A_2     C     0.0471     0.0828     0.9418
A_2     C     0.19     0.2473     0.7765
A_2     C     0.3129     0.6652     0.6787
A_2     C     0.4745     0.7738     0.0532
A_2     C     0.0011     0.2934     0.729
A_2     C     0.463     0.1334     0.7189
A_2     C     0.3648     0.3796     0.7978
A_2     C     0.0753     0.8061     0.6658
A_2     C     0.319     0.2851     0.6788
A_2     C     0.2012     0.8078     0.7394
A_2     C     0.08     0.4723     0.2265
A_2     C     0.4998     0.5394     0.2403
A_2     C     0.1004     0.335     0.9089
A_2     C     0.2121     0.3701     0.1647
A_2     C     0.6211     0.9228     0.7925
A_2     C     0.8283     0.2224     0.0431
A_2     C     0.471     0.1161     0.7699
A_2     C     0.8641     0.6092     0.8454
A_2     C     0.1782     0.2822     0.1254
A_2     C     0.0198     0.4002     0.9597
A_2     C     0.6818     0.7597     0.0985
A_2     C     0.2937     0.2725     0.8782
A_2     C     0.0368     0.0421     0.8084
A_2     C     0.4117     0.0419     0.5451
A_2     C     0.2778     0.3301     0.1576
A_2     C     0.7351     0.0442     0.061
A_2     C     0.1385     0.9896     0.7434
A_2     C     0.0189     0.3811     0.2716
A_2     C     0.0077     0.9305     0.0826
A_2     C     0.71     0.1009     0.2006
A_2     C     0.4625     0.3743     0.7611
A_2     C     0.1596     0.4049     0.7125
A_2     C     0.0441     0.6588     0.575
A_2     C     0.5659     0.4481     0.8893
A_2     C     0.478     0.7865     0.1107
A_2     C     0.139     0.6466     0.6156
A_2     C     0.3185     0.9136     0.0206
A_2     C     0.5687     0.4484     0.5201
A_2     C     0.2151     0.6846     0.2422
A_2     C     0.9943     0.7459     0.0211
A_2     C     0.8298     0.4657     0.6449
A_2     C     0.8309     0.433     0.101
A_2     C     0.6083     0.9148     0.5141
A_2     C     0.4002     0.5557     0.7637
A_2     C     0.4428     0.2344     0.33
A_2     C     0.8729     0.1356     0.232
A_2     C     0.3348     0.207     0.7637
A_2     C     0.5229     0.8237     0.3324
A_2     C     0.8024     0.951     0.772
A_2     C     0.1207     0.9345     0.2104
A_2     C     0.0516     0.5598     0.4017
A_2     C     0.6089     0.4932     0.5901
A_2     C     0.4456     0.1459     0.3471
A_2     C     0.4842     0.7162     0.4101
A_2     C     0.2627     0.2517     0.0739
A_2     C     0.6495     0.5567     0.9633
A_2     C     0.8682     0.5015     0.2619
A_2     C     0.1047     0.3196     0.4504
A_2     C     0.6324     0.3824     0.9283
A_2     C     0.95     0.0387     0.0356
A_2     C     0.0933     0.2346     0.8906
A_2     C     0.8016     0.8723     0.7634
A_2     C     0.9945     0.4905     0.1286
A_2     C     0.1818     0.4183     0.8953
A_2     C     0.1325     0.0628     0.3009
A_2     C     0.8973     0.1032     0.63
A_2     C     0.5587     0.3785     0.0792
A_2     C     0.6096     0.888     0.9192
A_2     C     0.1919     0.6015     0.2181
A_2     C     0.3729     0.2606     0.0525
A_2     C     0.4103     0.1993     0.3936
A_2     C     0.7028     0.8112     0.0047
A_2     C     0.6467     0.8865     0.554
A_2     C     0.5709     0.8828     0.2323
A_2     C     0.747     0.5724     0.3591
A_2     C     0.0204     0.1409     0.4351
A_2     C     0.241     0.9514     0.6282
A_2     C     0.2302     0.9157     0.1634
A_2     C     0.242     0.9484     0.3055
A_2     C     0.3663     0.4064     0.4522
A_2     C     0.7675     0.7139     0.2401
A_2     C     0.6638     0.5042     0.7746
A_2     C     0.4033     0.3635     0.5268
A_2     C     0.8784     0.5219     0.0862
A_2     C     0.5643     0.9053     0.0834
A_2     C     0.4445     0.2198     0.2972
A_2     C     0.8056     0.1646     0.0856
A_2     C     0.7566     0.0047     0.8491
A_2     C     0.9627     0.9874     0.4184
A_2     C     0.1089     0.8359     0.0515
A_2     C     0.626     0.1449     0.5845
A_2     C     0.0889     0.9736     0.8852
A_2     C     0.177     0.1271     0.8603
A_2     C     0.9808     0.6815     0.1452
A_2     C     0.7622     0.3649     0.8147
A_2     C     0.6622     0.8615     0.5744
A_2     C     0.1929     0.7252     0.3177
A_2     C     0.8745     0.2173     0.4855
A_2     C     0.4539     0.6824     0.9966
A_2     C     0.9746     0.922     0.2557
A_2     C     0.6174     0.951     0.1689
A_2     C     0.2993     0.1754     0.736
A_2     C     0.6338     0.4757     0.118
A_2     C     0.6333     0.4618     0.8423
A_2     C     0.6214     0.7511     0.0758
A_2     C     0.7516     0.4673     0.0699
A_2     C     0.1431     0.748     0.1982
A_2     C     0.4155     0.452     0.7484
A_2     C     0.2899     0.7609     0.6416
A_2     C     0.0568     0.9314     0.6305
A_2     C     0.8232     0.4674     0.9893
A_2     C     0.0525     0.7065     0.4392
A_2     C     0.7936     0.8657     0.7473
A_2     C     0.7078     0.5457     0.9587
A_2     C     0.6425     0.5823     0.0366
A_2     C     0.9821     0.9734     0.3026
